@<TRIPOS>MOLECULE
3R207
157   159    1
SMALL
USER_CHARGES


@<TRIPOS>ATOM
      1 CA        -45.6554  -31.0937    7.6295 C.3       0 UNK        -0.1975 
      2 C         -46.2153  -30.5520    6.3223 C.2       0 UNK         0.4852 
      3 O         -46.5770  -31.3331    5.4413 O.2       0 UNK        -0.5216 
      4 N         -46.2786  -29.2242    6.1882 N.am      1 UNK        -0.4461 
      5 CA        -46.7463  -28.5024    5.0071 C.3       1 UNK         0.0864 
      6 C6        -48.2870  -28.5881    4.8034 C.3       14 UNK        -0.0898 
      7 S7        -49.2697  -27.8082    6.1325 S.3       14 UNK        -0.2598 
      8 C8        -50.5764  -29.0524    6.3999 C.3       14 UNK         0.0286 
      9 C9        -51.5815  -28.5759    7.4402 C.ar      14 UNK        -0.0844 
     10 C10       -52.2880  -27.3893    7.2240 C.ar      14 UNK        -0.0881 
     11 C11       -53.1512  -26.8910    8.2000 C.ar      14 UNK        -0.0643 
     12 C12       -53.3379  -27.6126    9.3787 C.ar      14 UNK        -0.0930 
     13 C13       -52.6639  -28.8156    9.6079 C.ar      14 UNK        -0.0827 
     14 C14       -51.7844  -29.2922    8.6269 C.ar      14 UNK        -0.1249 
     15 C15       -52.7852  -29.5376   10.9510 C.3       14 UNK         0.0141 
     16 S16       -54.4868  -30.0184   11.4293 S.3       14 UNK        -0.2313 
     17 C17       -55.2219  -28.4395   11.9897 C.3       14 UNK        -0.0915 
     18 CA        -56.2874  -28.4889   13.1214 C.3       13 UNK         0.0968 
     19 C         -57.5545  -29.3509   12.8261 C.2       13 UNK         0.5732 
     20 N         -58.3084  -29.7743   13.8341 N.am      13 UNK        -0.7310 
     21 O         -57.8968  -29.5951   11.6714 O.2       13 UNK        -0.5035 
     22 N         -55.7254  -28.5656   14.4804 N.am      13 UNK        -0.4233 
     23 C         -55.3962  -29.6602   15.1827 C.2       13 UNK         0.4989 
     24 O         -55.3682  -30.7971   14.7122 O.2       13 UNK        -0.4996 
     25 CA        -55.0934  -29.4739   16.6877 C.3       12 UNK         0.0216 
     26 CB        -53.7069  -30.0162   17.0771 C.3       12 UNK        -0.1964 
     27 N         -55.2414  -28.0905   17.1625 N.am      12 UNK        -0.4276 
     28 C         -56.4229  -27.4893   17.3778 C.2       12 UNK         0.5020 
     29 O         -57.5045  -28.0672   17.2627 O.2       12 UNK        -0.5489 
     30 CA        -56.4186  -25.9905   17.7398 C.3       11 UNK         0.0294 
     31 CB        -56.5667  -25.8070   19.2586 C.3       11 UNK        -0.2019 
     32 N         -55.2352  -25.2567   17.2803 N.am      11 UNK        -0.4493 
     33 C         -54.8526  -25.1044   16.0043 C.2       11 UNK         0.4932 
     34 O         -55.4811  -25.5551   15.0453 O.2       11 UNK        -0.5029 
     35 CA        -53.5067  -24.3903   15.7569 C.3       10 UNK         0.0280 
     36 CB        -53.0333  -23.5087   16.9342 C.3       10 UNK        -0.1976 
     37 N         -52.4569  -25.3446   15.3830 N.am      10 UNK        -0.4242 
     38 C         -52.1113  -26.4552   16.0552 C.2       10 UNK         0.5072 
     39 O         -52.5959  -26.7930   17.1373 O.2       10 UNK        -0.5224 
     40 CA        -51.0878  -27.3775   15.3855 C.3       9 UNK         0.0343 
     41 CB        -51.7507  -28.1281   14.2231 C.3       9 UNK        -0.2003 
     42 N         -49.9016  -26.6727   14.9010 N.am      9 UNK        -0.4272 
     43 C         -48.9538  -26.1498   15.6918 C.2       9 UNK         0.4988 
     44 O         -48.9895  -26.1845   16.9225 O.2       9 UNK        -0.5108 
     45 CA        -47.7458  -25.4984   14.9970 C.3       8 UNK         0.0248 
     46 CB        -46.7631  -26.5718   14.5019 C.3       8 UNK        -0.2001 
     47 N         -48.1250  -24.6247   13.8852 N.am      8 UNK        -0.4140 
     48 C         -48.7756  -23.4608   14.0283 C.2       8 UNK         0.5028 
     49 O         -49.0839  -22.9742   15.1169 O.2       8 UNK        -0.5428 
     50 CA        -49.1605  -22.7134   12.7400 C.3       7 UNK         0.0264 
     51 CB        -47.9743  -21.8921   12.2095 C.3       7 UNK        -0.1988 
     52 N         -49.6505  -23.5966   11.6808 N.am      7 UNK        -0.4454 
     53 C         -50.7436  -24.3700   11.7679 C.2       7 UNK         0.5027 
     54 O         -51.4766  -24.4301   12.7579 O.2       7 UNK        -0.5083 
     55 CA        -51.0242  -25.2709   10.5513 C.3       6 UNK         0.0844 
     56 C56       -51.5645  -24.4570    9.3403 C.3       14 UNK        -0.0967 
     57 S57       -53.3865  -24.3535    9.3344 S.3       14 UNK        -0.2604 
     58 C58       -53.8284  -25.5387    8.0152 C.3       14 UNK         0.0134 
     59 N         -49.8478  -26.0734   10.2027 N.am      6 UNK        -0.4116 
     60 C         -49.2642  -26.9790   11.0025 C.2       5 UNK         0.5034 
     61 O         -49.6826  -27.2872   12.1146 O.2       5 UNK        -0.5045 
     62 CA        -47.9490  -27.6035   10.5120 C.3       5 UNK         0.0224 
     63 CB        -48.2159  -28.8782    9.6999 C.3       5 UNK        -0.1978 
     64 N         -47.1451  -26.6607    9.7313 N.am      5 UNK        -0.4737 
     65 C         -46.5852  -25.5565   10.2481 C.2       4 UNK         0.5027 
     66 O         -46.6264  -25.2604   11.4420 O.2       4 UNK        -0.5211 
     67 CA        -45.9401  -24.5880    9.2494 C.3       4 UNK         0.0297 
     68 CB        -44.5086  -25.0272    8.9054 C.3       4 UNK        -0.1993 
     69 N         -46.7348  -24.4666    8.0248 N.am      4 UNK        -0.4486 
     70 C         -47.9360  -23.8716    7.9595 C.2       3 UNK         0.4961 
     71 O         -48.4939  -23.3853    8.9451 O.2       3 UNK        -0.5105 
     72 CA        -48.6770  -23.8555    6.6043 C.3       3 UNK         0.0299 
     73 CB        -49.2409  -22.4586    6.2746 C.3       3 UNK        -0.1972 
     74 N         -47.9126  -24.4077    5.4777 N.am      3 UNK        -0.4305 
     75 C         -46.7807  -23.9384    4.9273 C.2       2 UNK         0.5006 
     76 O         -46.2644  -22.8634    5.2348 O.2       2 UNK        -0.5106 
     77 CA        -46.0860  -24.8495    3.8880 C.3       2 UNK         0.0296 
     78 CB        -44.5545  -24.6529    3.8753 C.3       2 UNK        -0.2002 
     79 N         -46.4130  -26.2804    4.0214 N.am      2 UNK        -0.4032 
     80 C         -46.2427  -27.0507    5.1086 C.2       1 UNK         0.5000 
     81 O         -45.7735  -26.6402    6.1766 O.2       1 UNK        -0.5238 
     82 H82       -44.8590  -31.8097    7.4289 H         1 UNK         0.0889 
     83 H83       -46.4389  -31.6030    8.1900 H         1 UNK         0.0889 
     84 H84       -45.2454  -30.3018    8.2561 H         1 UNK         0.0889 
     85 H85       -45.9229  -28.6068    6.9079 H         1 UNK         0.3028 
     86 H86       -46.2557  -28.9440    4.1370 H         1 UNK         0.0864 
     87 H87       -48.5730  -28.1244    3.8581 H         1 UNK         0.0720 
     88 H88       -48.5829  -29.6334    4.7058 H         1 UNK         0.0720 
     89 H89       -50.1165  -29.9936    6.7055 H         1 UNK         0.0814 
     90 H90       -51.0959  -29.2444    5.4601 H         1 UNK         0.0814 
     91 H91       -52.1241  -26.8297    6.3132 H         1 UNK         0.1469 
     92 H92       -53.9643  -27.1796   10.1380 H         1 UNK         0.1381 
     93 H93       -51.2282  -30.2028    8.8024 H         1 UNK         0.1206 
     94 H94       -52.1788  -30.4443   10.9410 H         1 UNK         0.0813 
     95 H95       -52.3524  -28.9037   11.7195 H         1 UNK         0.0813 
     96 H96       -54.4220  -27.7607   12.2889 H         1 UNK         0.0638 
     97 H97       -55.6927  -27.9887   11.1153 H         1 UNK         0.0638 
     98 H98       -56.7120  -27.4841   13.1222 H         1 UNK         0.0568 
     99 H99       -58.0626  -29.5551   14.7867 H         1 UNK         0.3450 
    100 H100      -59.1353  -30.3151   13.6366 H         1 UNK         0.3450 
    101 H101      -55.6990  -27.6744   14.9611 H         1 UNK         0.2987 
    102 H102      -55.8289  -30.0855   17.2149 H         1 UNK         0.0766 
    103 H103      -53.5716  -30.0046   18.1586 H         1 UNK         0.0798 
    104 H104      -52.8977  -29.4369   16.6394 H         1 UNK         0.0798 
    105 H105      -53.5815  -31.0491   16.7497 H         1 UNK         0.0798 
    106 H106      -54.3860  -27.5482   17.2681 H         1 UNK         0.3198 
    107 H107      -57.2881  -25.5418   17.2546 H         1 UNK         0.0843 
    108 H108      -55.7110  -26.2128   19.7998 H         1 UNK         0.0831 
    109 H109      -57.4573  -26.3176   19.6283 H         1 UNK         0.0831 
    110 H110      -56.6665  -24.7545   19.5250 H         1 UNK         0.0831 
    111 H111      -54.6233  -24.8936   17.9971 H         1 UNK         0.3133 
    112 H112      -53.6560  -23.7400   14.8938 H         1 UNK         0.0566 
    113 H113      -52.1473  -22.9377   16.6548 H         1 UNK         0.0814 
    114 H114      -53.7998  -22.7875   17.2214 H         1 UNK         0.0814 
    115 H115      -52.7748  -24.0938   17.8174 H         1 UNK         0.0814 
    116 H116      -52.0155  -25.1666   14.4834 H         1 UNK         0.3091 
    117 H117      -50.7655  -28.1131   16.1255 H         1 UNK         0.0702 
    118 H118      -52.6617  -28.6384   14.5311 H         1 UNK         0.0785 
    119 H119      -52.0265  -27.4410   13.4224 H         1 UNK         0.0785 
    120 H120      -51.0816  -28.8829   13.8099 H         1 UNK         0.0785 
    121 H121      -49.7753  -26.6507   13.8919 H         1 UNK         0.2998 
    122 H122      -47.2277  -24.8861   15.7382 H         1 UNK         0.0697 
    123 H123      -47.2141  -27.2126   13.7440 H         1 UNK         0.0825 
    124 H124      -46.4400  -27.2138   15.3224 H         1 UNK         0.0825 
    125 H125      -45.8688  -26.1221   14.0700 H         1 UNK         0.0825 
    126 H126      -47.8368  -24.9134   12.9541 H         1 UNK         0.3029 
    127 H127      -49.9695  -22.0240   12.9907 H         1 UNK         0.0897 
    128 H128      -47.1410  -22.5307   11.9140 H         1 UNK         0.0792 
    129 H129      -47.6051  -21.2028   12.9701 H         1 UNK         0.0792 
    130 H130      -48.2608  -21.2963   11.3425 H         1 UNK         0.0792 
    131 H131      -49.1222  -23.6025   10.8118 H         1 UNK         0.3086 
    132 H132      -51.7840  -25.9869   10.8667 H         1 UNK         0.0583 
    133 H133      -51.1595  -23.4435    9.3093 H         1 UNK         0.1020 
    134 H134      -51.2466  -24.9101    8.4014 H         1 UNK         0.1020 
    135 H135      -54.9103  -25.6774    8.0088 H         1 UNK         0.0694 
    136 H136      -53.5662  -25.1019    7.0503 H         1 UNK         0.0694 
    137 H137      -49.4061  -25.8703    9.3204 H         1 UNK         0.2989 
    138 H138      -47.3711  -27.8833   11.3954 H         1 UNK         0.1055 
    139 H139      -48.7790  -29.6030   10.2897 H         1 UNK         0.0806 
    140 H140      -47.2865  -29.3589    9.3985 H         1 UNK         0.0806 
    141 H141      -48.7976  -28.6723    8.8041 H         1 UNK         0.0806 
    142 H142      -47.0675  -26.8203    8.7368 H         1 UNK         0.3061 
    143 H143      -45.8912  -23.6039    9.7207 H         1 UNK         0.0734 
    144 H144      -44.0350  -24.3298    8.2144 H         1 UNK         0.0832 
    145 H145      -43.8893  -25.0666    9.8024 H         1 UNK         0.0832 
    146 H146      -44.4839  -26.0179    8.4502 H         1 UNK         0.0832 
    147 H147      -46.3591  -24.9112    7.1938 H         1 UNK         0.3156 
    148 H148      -49.5277  -24.5264    6.7274 H         1 UNK         0.0589 
    149 H149      -49.9332  -22.1241    7.0484 H         1 UNK         0.0808 
    150 H150      -48.4531  -21.7084    6.2023 H         1 UNK         0.0808 
    151 H151      -49.7890  -22.4634    5.3326 H         1 UNK         0.0808 
    152 H152      -48.2397  -25.3054    5.1479 H         1 UNK         0.3098 
    153 H153      -46.4679  -24.5372    2.9150 H         1 UNK         0.0720 
    154 H154      -44.0792  -25.2866    3.1267 H         1 UNK         0.0791 
    155 H155      -44.1095  -24.8860    4.8434 H         1 UNK         0.0791 
    156 H156      -44.2911  -23.6218    3.6363 H         1 UNK         0.0791 
    157 H157      -46.8246  -26.7036    3.2004 H         1 UNK         0.3028 
@<TRIPOS>BOND
     1    1    2 1    
     2    1   82 1    
     3    1   83 1    
     4    1   84 1    
     5    2    3 2    
     6    2    4 am   BACKBONE|DICT|INTERRES
     7    4    5 1    
     8    4   85 1    
     9    5    6 1    
    10    5   80 1    
    11    5   86 1    
    12    6    7 1    
    13    6   87 1    
    14    6   88 1    
    15    7    8 1    
    16    8    9 1    
    17    8   89 1    
    18    8   90 1    
    19    9   10 ar   
    20    9   14 ar   
    21   10   11 ar   
    22   10   91 1    
    23   11   12 ar   
    24   11   58 1    
    25   12   13 ar   
    26   12   92 1    
    27   13   14 ar   
    28   13   15 1    
    29   14   93 1    
    30   15   16 1    
    31   15   94 1    
    32   15   95 1    
    33   16   17 1    
    34   17   18 1    
    35   17   96 1    
    36   17   97 1    
    37   18   19 1    
    38   18   22 1    
    39   18   98 1    
    40   19   20 am   BACKBONE|DICT|INTERRES
    41   19   21 2    
    42   20   99 1    
    43   20  100 1    
    44   22   23 am   BACKBONE|DICT|INTERRES
    45   22  101 1    
    46   23   24 2    
    47   23   25 1    
    48   25   26 1    
    49   25   27 1    
    50   25  102 1    
    51   26  103 1    
    52   26  104 1    
    53   26  105 1    
    54   27   28 am   BACKBONE|DICT|INTERRES
    55   27  106 1    
    56   28   29 2    
    57   28   30 1    
    58   30   31 1    
    59   30   32 1    
    60   30  107 1    
    61   31  108 1    
    62   31  109 1    
    63   31  110 1    
    64   32   33 am   BACKBONE|DICT|INTERRES
    65   32  111 1    
    66   33   34 2    
    67   33   35 1    
    68   35   36 1    
    69   35   37 1    
    70   35  112 1    
    71   36  113 1    
    72   36  114 1    
    73   36  115 1    
    74   37   38 am   BACKBONE|DICT|INTERRES
    75   37  116 1    
    76   38   39 2    
    77   38   40 1    
    78   40   41 1    
    79   40   42 1    
    80   40  117 1    
    81   41  118 1    
    82   41  119 1    
    83   41  120 1    
    84   42   43 am   BACKBONE|DICT|INTERRES
    85   42  121 1    
    86   43   44 2    
    87   43   45 1    
    88   45   46 1    
    89   45   47 1    
    90   45  122 1    
    91   46  123 1    
    92   46  124 1    
    93   46  125 1    
    94   47   48 am   BACKBONE|DICT|INTERRES
    95   47  126 1    
    96   48   49 2    
    97   48   50 1    
    98   50   51 1    
    99   50   52 1    
   100   50  127 1    
   101   51  128 1    
   102   51  129 1    
   103   51  130 1    
   104   52   53 am   BACKBONE|DICT|INTERRES
   105   52  131 1    
   106   53   54 2    
   107   53   55 1    
   108   55   56 1    
   109   55   59 1    
   110   55  132 1    
   111   56   57 1    
   112   56  133 1    
   113   56  134 1    
   114   57   58 1    
   115   58  135 1    
   116   58  136 1    
   117   59   60 am   BACKBONE|DICT|INTERRES
   118   59  137 1    
   119   60   61 2    
   120   60   62 1    
   121   62   63 1    
   122   62   64 1    
   123   62  138 1    
   124   63  139 1    
   125   63  140 1    
   126   63  141 1    
   127   64   65 am   BACKBONE|DICT|INTERRES
   128   64  142 1    
   129   65   66 2    
   130   65   67 1    
   131   67   68 1    
   132   67   69 1    
   133   67  143 1    
   134   68  144 1    
   135   68  145 1    
   136   68  146 1    
   137   69   70 am   BACKBONE|DICT|INTERRES
   138   69  147 1    
   139   70   71 2    
   140   70   72 1    
   141   72   73 1    
   142   72   74 1    
   143   72  148 1    
   144   73  149 1    
   145   73  150 1    
   146   73  151 1    
   147   74   75 am   BACKBONE|DICT|INTERRES
   148   74  152 1    
   149   75   76 2    
   150   75   77 1    
   151   77   78 1    
   152   77   79 1    
   153   77  153 1    
   154   78  154 1    
   155   78  155 1    
   156   78  156 1    
   157   79   80 am   BACKBONE|DICT|INTERRES
   158   79  157 1    
   159   80   81 2    
@<TRIPOS>SUBSTRUCTURE
     1 UNK         1 GROUP             0       ****    0 ROOT    
