@<TRIPOS>MOLECULE
3R207
157   159    1
SMALL
USER_CHARGES


@<TRIPOS>ATOM
      1 CA        -45.2715  -32.2274    9.0401 C.3       0 UNK        -0.1975 
      2 C         -45.9618  -30.8745    8.9483 C.2       0 UNK         0.4852 
      3 O         -46.5642  -30.4340    9.9264 O.2       0 UNK        -0.5216 
      4 N         -45.8790  -30.2247    7.7794 N.am      1 UNK        -0.4461 
      5 CA        -46.4501  -28.9068    7.4658 C.3       1 UNK         0.0864 
      6 C6        -48.0047  -28.8803    7.4446 C.3       14 UNK        -0.0898 
      7 S7        -48.7069  -30.1294    6.3180 S.3       14 UNK        -0.2598 
      8 C8        -49.6249  -31.2008    7.4752 C.3       14 UNK         0.0286 
      9 C9        -50.9714  -30.6237    7.9059 C.ar      14 UNK        -0.0844 
     10 C10       -51.8541  -30.0863    6.9622 C.ar      14 UNK        -0.0881 
     11 C11       -53.1093  -29.6114    7.3495 C.ar      14 UNK        -0.0643 
     12 C12       -53.4943  -29.7010    8.6895 C.ar      14 UNK        -0.0930 
     13 C13       -52.6255  -30.2311    9.6478 C.ar      14 UNK        -0.0827 
     14 C14       -51.3632  -30.6857    9.2480 C.ar      14 UNK        -0.1249 
     15 C15       -53.0636  -30.3523   11.1036 C.3       14 UNK         0.0141 
     16 S16       -53.0862  -28.7425   11.9563 S.3       14 UNK        -0.2313 
     17 C17       -54.7648  -28.1248   11.5747 C.3       14 UNK        -0.0915 
     18 CA        -55.6091  -27.7609   12.8261 C.3       13 UNK         0.0968 
     19 C         -56.0898  -28.9917   13.6469 C.2       13 UNK         0.5732 
     20 N         -56.2021  -28.8940   14.9663 N.am      13 UNK        -0.7310 
     21 O         -56.3871  -30.0431   13.0851 O.2       13 UNK        -0.5035 
     22 N         -54.9556  -26.7289   13.6460 N.am      13 UNK        -0.4233 
     23 C         -55.2030  -25.4160   13.5896 C.2       13 UNK         0.4989 
     24 O         -56.0436  -24.8998   12.8510 O.2       13 UNK        -0.4996 
     25 CA        -54.3617  -24.5461   14.5409 C.3       12 UNK         0.0216 
     26 CB        -54.7278  -23.0468   14.4959 C.3       12 UNK        -0.1964 
     27 N         -54.3710  -25.0676   15.9135 N.am      12 UNK        -0.4276 
     28 C         -55.4113  -25.1426   16.7606 C.2       12 UNK         0.5020 
     29 O         -56.5428  -24.7410   16.4872 O.2       12 UNK        -0.5489 
     30 CA        -55.1756  -25.7913   18.1437 C.3       11 UNK         0.0294 
     31 CB        -56.1465  -26.9617   18.3823 C.3       11 UNK        -0.2019 
     32 N         -53.8071  -26.2726   18.3493 N.am      11 UNK        -0.4493 
     33 C         -52.7505  -25.5043   18.6462 C.2       11 UNK         0.4932 
     34 O         -52.8258  -24.2972   18.8741 O.2       11 UNK        -0.5029 
     35 CA        -51.3698  -26.1896   18.6550 C.3       10 UNK         0.0280 
     36 CB        -50.9451  -26.5143   20.0964 C.3       10 UNK        -0.1976 
     37 N         -51.2750  -27.4085   17.8369 N.am      10 UNK        -0.4242 
     38 C         -51.4986  -27.4825   16.5171 C.2       10 UNK         0.5072 
     39 O         -51.9105  -26.5421   15.8327 O.2       10 UNK        -0.5224 
     40 CA        -51.2988  -28.8560   15.8623 C.3       9 UNK         0.0343 
     41 CB        -52.6352  -29.6098   15.7772 C.3       9 UNK        -0.2003 
     42 N         -50.7621  -28.6875   14.5145 N.am      9 UNK        -0.4272 
     43 C         -49.4684  -28.4854   14.2336 C.2       9 UNK         0.4988 
     44 O         -48.5644  -28.5428   15.0683 O.2       9 UNK        -0.5108 
     45 CA        -49.1301  -28.1556   12.7711 C.3       8 UNK         0.0248 
     46 CB        -49.0457  -29.4406   11.9350 C.3       8 UNK        -0.2001 
     47 N         -50.1027  -27.2468   12.1599 N.am      8 UNK        -0.4140 
     48 C         -50.2469  -25.9514   12.4753 C.2       8 UNK         0.5028 
     49 O         -49.5352  -25.3650   13.2916 O.2       8 UNK        -0.5428 
     50 CA        -51.3445  -25.1832   11.7207 C.3       7 UNK         0.0264 
     51 CB        -51.1575  -23.6540   11.7745 C.3       7 UNK        -0.1988 
     52 N         -51.4132  -25.6362   10.3326 N.am      7 UNK        -0.4454 
     53 C         -52.4943  -25.5996    9.5480 C.2       7 UNK         0.5027 
     54 O         -53.5667  -25.0978    9.8884 O.2       7 UNK        -0.5083 
     55 CA        -52.3402  -26.2280    8.1455 C.3       6 UNK         0.0844 
     56 C56       -53.7053  -26.4198    7.4332 C.3       14 UNK        -0.0967 
     57 S57       -53.5426  -27.3168    5.8500 S.3       14 UNK        -0.2604 
     58 C58       -54.0495  -29.0030    6.3191 C.3       14 UNK         0.0134 
     59 N         -51.4021  -25.4683    7.3157 N.am      6 UNK        -0.4116 
     60 C         -50.0715  -25.4405    7.4492 C.2       5 UNK         0.5034 
     61 O         -49.4575  -26.0417    8.3345 O.2       5 UNK        -0.5045 
     62 CA        -49.2759  -24.6150    6.4250 C.3       5 UNK         0.0224 
     63 CB        -50.0483  -24.2826    5.1268 C.3       5 UNK        -0.1978 
     64 N         -48.7104  -23.4097    7.0387 N.am      5 UNK        -0.4737 
     65 C         -49.3724  -22.3649    7.5615 C.2       4 UNK         0.5027 
     66 O         -50.5995  -22.2646    7.5488 O.2       4 UNK        -0.5211 
     67 CA        -48.5336  -21.2440    8.2132 C.3       4 UNK         0.0297 
     68 CB        -49.2229  -20.6654    9.4627 C.3       4 UNK        -0.1993 
     69 N         -47.1940  -21.7046    8.5865 N.am      4 UNK        -0.4486 
     70 C         -46.0740  -21.5207    7.8741 C.2       3 UNK         0.4961 
     71 O         -46.0150  -20.8502    6.8436 O.2       3 UNK        -0.5105 
     72 CA        -44.8091  -22.2445    8.3803 C.3       3 UNK         0.0299 
     73 CB        -43.9690  -21.3060    9.2612 C.3       3 UNK        -0.1972 
     74 N         -45.0976  -23.4813    9.1207 N.am      3 UNK        -0.4305 
     75 C         -45.7074  -24.5547    8.5976 C.2       2 UNK         0.5006 
     76 O         -46.0413  -24.6339    7.4126 O.2       2 UNK        -0.5106 
     77 CA        -46.0645  -25.6819    9.5804 C.3       2 UNK         0.0296 
     78 CB        -47.1291  -25.2063   10.5850 C.3       2 UNK        -0.2002 
     79 N         -46.5748  -26.8550    8.8658 N.am      2 UNK        -0.4032 
     80 C         -45.7908  -27.7984    8.3227 C.2       1 UNK         0.5000 
     81 O         -44.5626  -27.8085    8.4536 O.2       1 UNK        -0.5238 
     82 H82       -44.7870  -32.5037    8.1037 H         1 UNK         0.0889 
     83 H83       -45.9975  -33.0015    9.2873 H         1 UNK         0.0889 
     84 H84       -44.5131  -32.2084    9.8222 H         1 UNK         0.0889 
     85 H85       -45.3453  -30.6411    7.0296 H         1 UNK         0.3028 
     86 H86       -46.1229  -28.6911    6.4474 H         1 UNK         0.0864 
     87 H87       -48.4214  -29.0001    8.4460 H         1 UNK         0.0720 
     88 H88       -48.3521  -27.9189    7.0703 H         1 UNK         0.0720 
     89 H89       -48.9952  -31.4128    8.3409 H         1 UNK         0.0814 
     90 H90       -49.8059  -32.1593    6.9876 H         1 UNK         0.0814 
     91 H91       -51.5652  -30.0342    5.9214 H         1 UNK         0.1469 
     92 H92       -54.4738  -29.3546    8.9817 H         1 UNK         0.1381 
     93 H93       -50.6931  -31.1173    9.9782 H         1 UNK         0.1206 
     94 H94       -52.3857  -31.0139   11.6446 H         1 UNK         0.0813 
     95 H95       -54.0458  -30.8237   11.1625 H         1 UNK         0.0813 
     96 H96       -54.6599  -27.2438   10.9430 H         1 UNK         0.0638 
     97 H97       -55.3063  -28.8502   10.9682 H         1 UNK         0.0638 
     98 H98       -56.5455  -27.3458   12.4498 H         1 UNK         0.0568 
     99 H99       -56.0492  -28.0149   15.4292 H         1 UNK         0.3450 
    100 H100      -56.5249  -29.6938   15.4873 H         1 UNK         0.3450 
    101 H101      -54.2462  -27.0631   14.2812 H         1 UNK         0.2987 
    102 H102      -53.3295  -24.6315   14.1996 H         1 UNK         0.0766 
    103 H103      -55.7675  -22.8705   14.7727 H         1 UNK         0.0798 
    104 H104      -54.0975  -22.4648   15.1682 H         1 UNK         0.0798 
    105 H105      -54.5884  -22.6446   13.4916 H         1 UNK         0.0798 
    106 H106      -53.4861  -25.4726   16.2097 H         1 UNK         0.3198 
    107 H107      -55.3874  -25.0218   18.8894 H         1 UNK         0.0843 
    108 H108      -57.1838  -26.6465   18.2605 H         1 UNK         0.0831 
    109 H109      -56.0506  -27.3533   19.3952 H         1 UNK         0.0831 
    110 H110      -55.9713  -27.7840   17.6889 H         1 UNK         0.0831 
    111 H111      -53.6444  -27.2566   18.1941 H         1 UNK         0.3133 
    112 H112      -50.6564  -25.4720   18.2444 H         1 UNK         0.0566 
    113 H113      -49.9248  -26.8967   20.1348 H         1 UNK         0.0814 
    114 H114      -50.9763  -25.6221   20.7238 H         1 UNK         0.0814 
    115 H115      -51.6011  -27.2562   20.5537 H         1 UNK         0.0814 
    116 H116      -50.9642  -28.2419   18.3163 H         1 UNK         0.3091 
    117 H117      -50.5998  -29.4457   16.4595 H         1 UNK         0.0702 
    118 H118      -52.5075  -30.5903   15.3180 H         1 UNK         0.0785 
    119 H119      -53.3701  -29.0620   15.1884 H         1 UNK         0.0785 
    120 H120      -53.0623  -29.7701   16.7679 H         1 UNK         0.0785 
    121 H121      -51.4369  -28.5844   13.7699 H         1 UNK         0.2998 
    122 H122      -48.1518  -27.6720   12.7556 H         1 UNK         0.0697 
    123 H123      -49.9801  -30.0011   11.9594 H         1 UNK         0.0825 
    124 H124      -48.2611  -30.0986   12.3107 H         1 UNK         0.0825 
    125 H125      -48.8104  -29.2225   10.8933 H         1 UNK         0.0825 
    126 H126      -50.7491  -27.6534   11.4978 H         1 UNK         0.3029 
    127 H127      -52.2860  -25.4365   12.2111 H         1 UNK         0.0897 
    128 H128      -51.9574  -23.1327   11.2486 H         1 UNK         0.0792 
    129 H129      -51.1608  -23.2939   12.8041 H         1 UNK         0.0792 
    130 H130      -50.2099  -23.3578   11.3249 H         1 UNK         0.0792 
    131 H131      -50.5498  -25.9839    9.9208 H         1 UNK         0.3086 
    132 H132      -51.9096  -27.2192    8.3024 H         1 UNK         0.0583 
    133 H133      -54.4058  -26.9546    8.0771 H         1 UNK         0.1020 
    134 H134      -54.1693  -25.4524    7.2315 H         1 UNK         0.1020 
    135 H135      -55.0751  -28.9826    6.6912 H         1 UNK         0.0694 
    136 H136      -54.0621  -29.6291    5.4258 H         1 UNK         0.0694 
    137 H137      -51.8153  -24.9138    6.5811 H         1 UNK         0.2989 
    138 H138      -48.4266  -25.2392    6.1418 H         1 UNK         0.1055 
    139 H139      -49.3948  -23.7982    4.4012 H         1 UNK         0.0806 
    140 H140      -50.8951  -23.6173    5.2966 H         1 UNK         0.0806 
    141 H141      -50.4298  -25.1892    4.6546 H         1 UNK         0.0806 
    142 H142      -47.7006  -23.4299    7.1342 H         1 UNK         0.3061 
    143 H143      -48.4568  -20.4429    7.4752 H         1 UNK         0.0734 
    144 H144      -50.2041  -20.2557    9.2188 H         1 UNK         0.0832 
    145 H145      -49.3679  -21.4233   10.2319 H         1 UNK         0.0832 
    146 H146      -48.6379  -19.8546    9.8973 H         1 UNK         0.0832 
    147 H147      -47.1340  -22.2744    9.4176 H         1 UNK         0.3156 
    148 H148      -44.2145  -22.5140    7.5048 H         1 UNK         0.0589 
    149 H149      -44.5014  -21.0164   10.1681 H         1 UNK         0.0808 
    150 H150      -43.0290  -21.7728    9.5564 H         1 UNK         0.0808 
    151 H151      -43.7179  -20.3895    8.7250 H         1 UNK         0.0808 
    152 H152      -44.8449  -23.4926   10.0991 H         1 UNK         0.3098 
    153 H153      -45.1644  -25.9570   10.1343 H         1 UNK         0.0720 
    154 H154      -47.4552  -26.0251   11.2240 H         1 UNK         0.0791 
    155 H155      -48.0101  -24.7979   10.0896 H         1 UNK         0.0791 
    156 H156      -46.7385  -24.4296   11.2429 H         1 UNK         0.0791 
    157 H157      -47.5700  -26.8544    8.6708 H         1 UNK         0.3028 
@<TRIPOS>BOND
     1    1    2 1    
     2    1   82 1    
     3    1   83 1    
     4    1   84 1    
     5    2    3 2    
     6    2    4 am   BACKBONE|DICT|INTERRES
     7    4    5 1    
     8    4   85 1    
     9    5    6 1    
    10    5   80 1    
    11    5   86 1    
    12    6    7 1    
    13    6   87 1    
    14    6   88 1    
    15    7    8 1    
    16    8    9 1    
    17    8   89 1    
    18    8   90 1    
    19    9   10 ar   
    20    9   14 ar   
    21   10   11 ar   
    22   10   91 1    
    23   11   12 ar   
    24   11   58 1    
    25   12   13 ar   
    26   12   92 1    
    27   13   14 ar   
    28   13   15 1    
    29   14   93 1    
    30   15   16 1    
    31   15   94 1    
    32   15   95 1    
    33   16   17 1    
    34   17   18 1    
    35   17   96 1    
    36   17   97 1    
    37   18   19 1    
    38   18   22 1    
    39   18   98 1    
    40   19   20 am   BACKBONE|DICT|INTERRES
    41   19   21 2    
    42   20   99 1    
    43   20  100 1    
    44   22   23 am   BACKBONE|DICT|INTERRES
    45   22  101 1    
    46   23   24 2    
    47   23   25 1    
    48   25   26 1    
    49   25   27 1    
    50   25  102 1    
    51   26  103 1    
    52   26  104 1    
    53   26  105 1    
    54   27   28 am   BACKBONE|DICT|INTERRES
    55   27  106 1    
    56   28   29 2    
    57   28   30 1    
    58   30   31 1    
    59   30   32 1    
    60   30  107 1    
    61   31  108 1    
    62   31  109 1    
    63   31  110 1    
    64   32   33 am   BACKBONE|DICT|INTERRES
    65   32  111 1    
    66   33   34 2    
    67   33   35 1    
    68   35   36 1    
    69   35   37 1    
    70   35  112 1    
    71   36  113 1    
    72   36  114 1    
    73   36  115 1    
    74   37   38 am   BACKBONE|DICT|INTERRES
    75   37  116 1    
    76   38   39 2    
    77   38   40 1    
    78   40   41 1    
    79   40   42 1    
    80   40  117 1    
    81   41  118 1    
    82   41  119 1    
    83   41  120 1    
    84   42   43 am   BACKBONE|DICT|INTERRES
    85   42  121 1    
    86   43   44 2    
    87   43   45 1    
    88   45   46 1    
    89   45   47 1    
    90   45  122 1    
    91   46  123 1    
    92   46  124 1    
    93   46  125 1    
    94   47   48 am   BACKBONE|DICT|INTERRES
    95   47  126 1    
    96   48   49 2    
    97   48   50 1    
    98   50   51 1    
    99   50   52 1    
   100   50  127 1    
   101   51  128 1    
   102   51  129 1    
   103   51  130 1    
   104   52   53 am   BACKBONE|DICT|INTERRES
   105   52  131 1    
   106   53   54 2    
   107   53   55 1    
   108   55   56 1    
   109   55   59 1    
   110   55  132 1    
   111   56   57 1    
   112   56  133 1    
   113   56  134 1    
   114   57   58 1    
   115   58  135 1    
   116   58  136 1    
   117   59   60 am   BACKBONE|DICT|INTERRES
   118   59  137 1    
   119   60   61 2    
   120   60   62 1    
   121   62   63 1    
   122   62   64 1    
   123   62  138 1    
   124   63  139 1    
   125   63  140 1    
   126   63  141 1    
   127   64   65 am   BACKBONE|DICT|INTERRES
   128   64  142 1    
   129   65   66 2    
   130   65   67 1    
   131   67   68 1    
   132   67   69 1    
   133   67  143 1    
   134   68  144 1    
   135   68  145 1    
   136   68  146 1    
   137   69   70 am   BACKBONE|DICT|INTERRES
   138   69  147 1    
   139   70   71 2    
   140   70   72 1    
   141   72   73 1    
   142   72   74 1    
   143   72  148 1    
   144   73  149 1    
   145   73  150 1    
   146   73  151 1    
   147   74   75 am   BACKBONE|DICT|INTERRES
   148   74  152 1    
   149   75   76 2    
   150   75   77 1    
   151   77   78 1    
   152   77   79 1    
   153   77  153 1    
   154   78  154 1    
   155   78  155 1    
   156   78  156 1    
   157   79   80 am   BACKBONE|DICT|INTERRES
   158   79  157 1    
   159   80   81 2    
@<TRIPOS>SUBSTRUCTURE
     1 UNK         1 GROUP             0       ****    0 ROOT    
