@<TRIPOS>MOLECULE
3R207
157   159    1
SMALL
USER_CHARGES


@<TRIPOS>ATOM
      1 CA        -49.7607  -30.2496    1.6446 C.3       0 UNK        -0.1975 
      2 C         -49.3292  -29.1435    2.5961 C.2       0 UNK         0.4852 
      3 O         -48.7809  -28.1332    2.1527 O.2       0 UNK        -0.5216 
      4 N         -49.5792  -29.3219    3.8991 N.am      1 UNK        -0.4461 
      5 CA        -49.1669  -28.4055    4.9649 C.3       1 UNK         0.0864 
      6 C6        -49.9817  -28.6467    6.2643 C.3       14 UNK        -0.0898 
      7 S7        -49.9603  -30.3648    6.8967 S.3       14 UNK        -0.2598 
      8 C8        -51.6829  -30.5946    7.4404 C.3       14 UNK         0.0286 
      9 C9        -51.9898  -29.7903    8.6955 C.ar      14 UNK        -0.0844 
     10 C10       -52.5395  -28.5097    8.5927 C.ar      14 UNK        -0.0881 
     11 C11       -52.8153  -27.7606    9.7384 C.ar      14 UNK        -0.0643 
     12 C12       -52.5458  -28.3041   10.9953 C.ar      14 UNK        -0.0930 
     13 C13       -52.0272  -29.5975   11.1166 C.ar      14 UNK        -0.0827 
     14 C14       -51.7395  -30.3310    9.9609 C.ar      14 UNK        -0.1249 
     15 C15       -51.7871  -30.2091   12.4916 C.3       14 UNK         0.0141 
     16 S16       -53.1997  -29.9905   13.6290 S.3       14 UNK        -0.2313 
     17 C17       -54.5033  -31.0057   12.8503 C.3       14 UNK        -0.0915 
     18 CA        -55.3442  -30.2580   11.7777 C.3       13 UNK         0.0968 
     19 C         -56.4903  -31.1620   11.2494 C.2       13 UNK         0.5732 
     20 N         -56.2051  -32.0225   10.2813 N.am      13 UNK        -0.7310 
     21 O         -57.6195  -31.1221   11.7360 O.2       13 UNK        -0.5035 
     22 N         -55.8206  -28.9499   12.2513 N.am      13 UNK        -0.4233 
     23 C         -56.3140  -27.9877   11.4609 C.2       13 UNK         0.4989 
     24 O         -56.4120  -28.0930   10.2376 O.2       13 UNK        -0.4996 
     25 CA        -56.7862  -26.6797   12.1253 C.3       12 UNK         0.0216 
     26 CB        -58.3134  -26.5375   12.0031 C.3       12 UNK        -0.1964 
     27 N         -56.4119  -26.5475   13.5371 N.am      12 UNK        -0.4276 
     28 C         -55.1988  -26.1980   13.9825 C.2       12 UNK         0.5020 
     29 O         -54.2298  -25.9706   13.2542 O.2       12 UNK        -0.5489 
     30 CA        -55.0517  -26.1005   15.5048 C.3       11 UNK         0.0294 
     31 CB        -54.9876  -27.4995   16.1473 C.3       11 UNK        -0.2019 
     32 N         -53.8353  -25.3621   15.8251 N.am      11 UNK        -0.4493 
     33 C         -53.6008  -24.7027   16.9660 C.2       11 UNK         0.4932 
     34 O         -54.4331  -24.5742   17.8662 O.2       11 UNK        -0.5029 
     35 CA        -52.1819  -24.1237   17.1296 C.3       10 UNK         0.0280 
     36 CB        -51.8958  -23.5796   18.5453 C.3       10 UNK        -0.1976 
     37 N         -51.1613  -25.0923   16.7135 N.am      10 UNK        -0.4242 
     38 C         -50.9307  -26.3080   17.2349 C.2       10 UNK         0.5072 
     39 O         -51.4711  -26.7435   18.2526 O.2       10 UNK        -0.5224 
     40 CA        -49.9486  -27.2130   16.4739 C.3       9 UNK         0.0343 
     41 CB        -50.7091  -28.0814   15.4615 C.3       9 UNK        -0.2003 
     42 N         -48.8913  -26.4726   15.7822 N.am      9 UNK        -0.4272 
     43 C         -47.8631  -25.8819   16.4081 C.2       9 UNK         0.4988 
     44 O         -47.6863  -25.9222   17.6265 O.2       9 UNK        -0.5108 
     45 CA        -46.8586  -25.1180   15.5315 C.3       8 UNK         0.0248 
     46 CB        -45.8915  -26.0941   14.8422 C.3       8 UNK        -0.2001 
     47 N         -47.5052  -24.2653   14.5315 N.am      8 UNK        -0.4140 
     48 C         -48.2450  -23.1837   14.8188 C.2       8 UNK         0.5028 
     49 O         -48.4355  -22.7650   15.9610 O.2       8 UNK        -0.5428 
     50 CA        -48.9000  -22.4490   13.6365 C.3       7 UNK         0.0264 
     51 CB        -47.8893  -21.5263   12.9374 C.3       7 UNK        -0.1988 
     52 N         -49.4978  -23.3554   12.6549 N.am      7 UNK        -0.4454 
     53 C         -50.5184  -24.1902   12.9050 C.2       7 UNK         0.5027 
     54 O         -51.0877  -24.2791   13.9924 O.2       7 UNK        -0.5083 
     55 CA        -50.9474  -25.1045   11.7451 C.3       6 UNK         0.0844 
     56 C56       -51.8478  -24.3207   10.7534 C.3       14 UNK        -0.0967 
     57 S57       -52.1615  -25.1520    9.1599 S.3       14 UNK        -0.2604 
     58 C58       -53.4257  -26.3759    9.6081 C.3       14 UNK         0.0134 
     59 N         -49.7826  -25.7344   11.1200 N.am      6 UNK        -0.4116 
     60 C         -48.9440  -26.5829   11.7329 C.2       5 UNK         0.5034 
     61 O         -49.0674  -26.9608   12.8979 O.2       5 UNK        -0.5045 
     62 CA        -47.7225  -27.0394   10.9222 C.3       5 UNK         0.0224 
     63 CB        -48.1097  -28.1842    9.9721 C.3       5 UNK        -0.1978 
     64 N         -47.1228  -25.9352   10.1655 N.am      5 UNK        -0.4737 
     65 C         -46.5305  -24.8708   10.7324 C.2       4 UNK         0.5027 
     66 O         -46.3677  -24.7524   11.9450 O.2       4 UNK        -0.5211 
     67 CA        -46.0913  -23.7165    9.8113 C.3       4 UNK         0.0297 
     68 CB        -44.6435  -23.9269    9.3423 C.3       4 UNK        -0.1993 
     69 N         -46.9597  -23.5440    8.6462 N.am      4 UNK        -0.4486 
     70 C         -48.2786  -23.3111    8.6935 C.2       3 UNK         0.4961 
     71 O         -48.8848  -23.0593    9.7360 O.2       3 UNK        -0.5105 
     72 CA        -49.0655  -23.4325    7.3716 C.3       3 UNK         0.0299 
     73 CB        -49.4559  -22.0386    6.8561 C.3       3 UNK        -0.1972 
     74 N         -48.3931  -24.1771    6.2934 N.am      3 UNK        -0.4305 
     75 C         -47.9239  -25.4323    6.3670 C.2       2 UNK         0.5006 
     76 O         -47.9600  -26.1149    7.3913 O.2       2 UNK        -0.5106 
     77 CA        -47.2458  -25.9818    5.0996 C.3       2 UNK         0.0296 
     78 CB        -45.9664  -25.1813    4.7921 C.3       2 UNK        -0.2002 
     79 N         -46.8680  -27.3935    5.2301 N.am      2 UNK        -0.4032 
     80 C         -47.6334  -28.4960    5.1853 C.2       1 UNK         0.5000 
     81 O         -47.1203  -29.6116    5.2946 O.2       1 UNK        -0.5238 
     82 H82       -50.2414  -31.0748    2.1701 H         1 UNK         0.0889 
     83 H83       -48.8959  -30.6445    1.1122 H         1 UNK         0.0889 
     84 H84       -50.4648  -29.8595    0.9102 H         1 UNK         0.0889 
     85 H85       -49.9911  -30.1873    4.2184 H         1 UNK         0.3028 
     86 H86       -49.4248  -27.4043    4.6230 H         1 UNK         0.0864 
     87 H87       -49.6513  -27.9849    7.0631 H         1 UNK         0.0720 
     88 H88       -51.0159  -28.3635    6.0688 H         1 UNK         0.0720 
     89 H89       -51.8498  -31.6550    7.6355 H         1 UNK         0.0814 
     90 H90       -52.3657  -30.3262    6.6327 H         1 UNK         0.0814 
     91 H91       -52.7519  -28.0878    7.6205 H         1 UNK         0.1469 
     92 H92       -52.7791  -27.7370   11.8849 H         1 UNK         0.1381 
     93 H93       -51.3254  -31.3267   10.0430 H         1 UNK         0.1206 
     94 H94       -51.5594  -31.2731   12.4124 H         1 UNK         0.0813 
     95 H95       -50.9066  -29.7358   12.9262 H         1 UNK         0.0813 
     96 H96       -55.1518  -31.3627   13.6525 H         1 UNK         0.0638 
     97 H97       -54.0403  -31.8948   12.4187 H         1 UNK         0.0638 
     98 H98       -54.6959  -30.0602   10.9241 H         1 UNK         0.0568 
     99 H99       -55.2804  -32.0706    9.8830 H         1 UNK         0.3450 
    100 H100      -56.9319  -32.6294    9.9361 H         1 UNK         0.3450 
    101 H101      -55.7732  -28.7925   13.2451 H         1 UNK         0.2987 
    102 H102      -56.3254  -25.8584   11.5720 H         1 UNK         0.0766 
    103 H103      -58.6285  -26.5808   10.9594 H         1 UNK         0.0798 
    104 H104      -58.6576  -25.5829   12.4018 H         1 UNK         0.0798 
    105 H105      -58.8372  -27.3339   12.5334 H         1 UNK         0.0798 
    106 H106      -57.1443  -26.7188   14.2120 H         1 UNK         0.3198 
    107 H107      -55.9145  -25.5554   15.8942 H         1 UNK         0.0843 
    108 H108      -54.9198  -27.4340   17.2335 H         1 UNK         0.0831 
    109 H109      -54.1208  -28.0603   15.7965 H         1 UNK         0.0831 
    110 H110      -55.8759  -28.0884   15.9169 H         1 UNK         0.0831 
    111 H111      -53.1399  -25.3582   15.0860 H         1 UNK         0.3133 
    112 H112      -52.1085  -23.2862   16.4346 H         1 UNK         0.0566 
    113 H113      -50.8846  -23.1785   18.6167 H         1 UNK         0.0814 
    114 H114      -52.0065  -24.3498   19.3090 H         1 UNK         0.0814 
    115 H115      -52.5840  -22.7722   18.7977 H         1 UNK         0.0814 
    116 H116      -50.7124  -24.8673   15.8304 H         1 UNK         0.3091 
    117 H117      -49.4793  -27.8777   17.2024 H         1 UNK         0.0702 
    118 H118      -50.0397  -28.7858   14.9683 H         1 UNK         0.0785 
    119 H119      -51.1903  -27.4786   14.6894 H         1 UNK         0.0785 
    120 H120      -51.4887  -28.6646   15.9534 H         1 UNK         0.0785 
    121 H121      -48.9419  -26.4442   14.7667 H         1 UNK         0.2998 
    122 H122      -46.2723  -24.4713   16.1878 H         1 UNK         0.0697 
    123 H123      -46.4079  -26.7389   14.1300 H         1 UNK         0.0825 
    124 H124      -45.3992  -26.7389   15.5714 H         1 UNK         0.0825 
    125 H125      -45.1093  -25.5604   14.3021 H         1 UNK         0.0825 
    126 H126      -47.3334  -24.5000   13.5562 H         1 UNK         0.3029 
    127 H127      -49.7040  -21.8292   14.0396 H         1 UNK         0.0897 
    128 H128      -47.0500  -22.0860   12.5247 H         1 UNK         0.0792 
    129 H129      -47.4806  -20.7963   13.6373 H         1 UNK         0.0792 
    130 H130      -48.3546  -20.9707   12.1228 H         1 UNK         0.0792 
    131 H131      -49.1185  -23.3306   11.7121 H         1 UNK         0.3086 
    132 H132      -51.5459  -25.9046   12.1800 H         1 UNK         0.0583 
    133 H133      -52.8047  -24.0890   11.2258 H         1 UNK         0.1020 
    134 H134      -51.4037  -23.3539   10.5090 H         1 UNK         0.1020 
    135 H135      -53.9299  -26.0854   10.5304 H         1 UNK         0.0694 
    136 H136      -54.1950  -26.3909    8.8347 H         1 UNK         0.0694 
    137 H137      -49.5904  -25.4624   10.1671 H         1 UNK         0.2989 
    138 H138      -46.9741  -27.4121   11.6250 H         1 UNK         0.1055 
    139 H139      -48.9000  -27.8862    9.2827 H         1 UNK         0.0806 
    140 H140      -47.2586  -28.5209    9.3803 H         1 UNK         0.0806 
    141 H141      -48.4816  -29.0446   10.5303 H         1 UNK         0.0806 
    142 H142      -47.2623  -25.9483    9.1573 H         1 UNK         0.3061 
    143 H143      -46.1339  -22.7937   10.3925 H         1 UNK         0.0734 
    144 H144      -44.5426  -24.8250    8.7314 H         1 UNK         0.0832 
    145 H145      -44.2868  -23.0788    8.7576 H         1 UNK         0.0832 
    146 H146      -43.9713  -24.0359   10.1947 H         1 UNK         0.0832 
    147 H147      -46.5514  -23.7373    7.7443 H         1 UNK         0.3156 
    148 H148      -49.9826  -23.9752    7.6024 H         1 UNK         0.0589 
    149 H149      -50.1168  -22.1040    5.9916 H         1 UNK         0.0808 
    150 H150      -49.9879  -21.4736    7.6232 H         1 UNK         0.0808 
    151 H151      -48.5806  -21.4543    6.5696 H         1 UNK         0.0808 
    152 H152      -48.3023  -23.6869    5.4146 H         1 UNK         0.3098 
    153 H153      -47.9251  -25.8645    4.2541 H         1 UNK         0.0720 
    154 H154      -46.1838  -24.1292    4.6043 H         1 UNK         0.0791 
    155 H155      -45.4675  -25.5621    3.9004 H         1 UNK         0.0791 
    156 H156      -45.2527  -25.2249    5.6164 H         1 UNK         0.0791 
    157 H157      -45.8874  -27.5435    5.4114 H         1 UNK         0.3028 
@<TRIPOS>BOND
     1    1    2 1    
     2    1   82 1    
     3    1   83 1    
     4    1   84 1    
     5    2    3 2    
     6    2    4 am   BACKBONE|DICT|INTERRES
     7    4    5 1    
     8    4   85 1    
     9    5    6 1    
    10    5   80 1    
    11    5   86 1    
    12    6    7 1    
    13    6   87 1    
    14    6   88 1    
    15    7    8 1    
    16    8    9 1    
    17    8   89 1    
    18    8   90 1    
    19    9   10 ar   
    20    9   14 ar   
    21   10   11 ar   
    22   10   91 1    
    23   11   12 ar   
    24   11   58 1    
    25   12   13 ar   
    26   12   92 1    
    27   13   14 ar   
    28   13   15 1    
    29   14   93 1    
    30   15   16 1    
    31   15   94 1    
    32   15   95 1    
    33   16   17 1    
    34   17   18 1    
    35   17   96 1    
    36   17   97 1    
    37   18   19 1    
    38   18   22 1    
    39   18   98 1    
    40   19   20 am   BACKBONE|DICT|INTERRES
    41   19   21 2    
    42   20   99 1    
    43   20  100 1    
    44   22   23 am   BACKBONE|DICT|INTERRES
    45   22  101 1    
    46   23   24 2    
    47   23   25 1    
    48   25   26 1    
    49   25   27 1    
    50   25  102 1    
    51   26  103 1    
    52   26  104 1    
    53   26  105 1    
    54   27   28 am   BACKBONE|DICT|INTERRES
    55   27  106 1    
    56   28   29 2    
    57   28   30 1    
    58   30   31 1    
    59   30   32 1    
    60   30  107 1    
    61   31  108 1    
    62   31  109 1    
    63   31  110 1    
    64   32   33 am   BACKBONE|DICT|INTERRES
    65   32  111 1    
    66   33   34 2    
    67   33   35 1    
    68   35   36 1    
    69   35   37 1    
    70   35  112 1    
    71   36  113 1    
    72   36  114 1    
    73   36  115 1    
    74   37   38 am   BACKBONE|DICT|INTERRES
    75   37  116 1    
    76   38   39 2    
    77   38   40 1    
    78   40   41 1    
    79   40   42 1    
    80   40  117 1    
    81   41  118 1    
    82   41  119 1    
    83   41  120 1    
    84   42   43 am   BACKBONE|DICT|INTERRES
    85   42  121 1    
    86   43   44 2    
    87   43   45 1    
    88   45   46 1    
    89   45   47 1    
    90   45  122 1    
    91   46  123 1    
    92   46  124 1    
    93   46  125 1    
    94   47   48 am   BACKBONE|DICT|INTERRES
    95   47  126 1    
    96   48   49 2    
    97   48   50 1    
    98   50   51 1    
    99   50   52 1    
   100   50  127 1    
   101   51  128 1    
   102   51  129 1    
   103   51  130 1    
   104   52   53 am   BACKBONE|DICT|INTERRES
   105   52  131 1    
   106   53   54 2    
   107   53   55 1    
   108   55   56 1    
   109   55   59 1    
   110   55  132 1    
   111   56   57 1    
   112   56  133 1    
   113   56  134 1    
   114   57   58 1    
   115   58  135 1    
   116   58  136 1    
   117   59   60 am   BACKBONE|DICT|INTERRES
   118   59  137 1    
   119   60   61 2    
   120   60   62 1    
   121   62   63 1    
   122   62   64 1    
   123   62  138 1    
   124   63  139 1    
   125   63  140 1    
   126   63  141 1    
   127   64   65 am   BACKBONE|DICT|INTERRES
   128   64  142 1    
   129   65   66 2    
   130   65   67 1    
   131   67   68 1    
   132   67   69 1    
   133   67  143 1    
   134   68  144 1    
   135   68  145 1    
   136   68  146 1    
   137   69   70 am   BACKBONE|DICT|INTERRES
   138   69  147 1    
   139   70   71 2    
   140   70   72 1    
   141   72   73 1    
   142   72   74 1    
   143   72  148 1    
   144   73  149 1    
   145   73  150 1    
   146   73  151 1    
   147   74   75 am   BACKBONE|DICT|INTERRES
   148   74  152 1    
   149   75   76 2    
   150   75   77 1    
   151   77   78 1    
   152   77   79 1    
   153   77  153 1    
   154   78  154 1    
   155   78  155 1    
   156   78  156 1    
   157   79   80 am   BACKBONE|DICT|INTERRES
   158   79  157 1    
   159   80   81 2    
@<TRIPOS>SUBSTRUCTURE
     1 UNK         1 GROUP             0       ****    0 ROOT    
