@<TRIPOS>MOLECULE
3R207
157   159    1
SMALL
USER_CHARGES


@<TRIPOS>ATOM
      1 CA        -47.5805  -31.9121    4.7831 C.3       0 UNK        -0.1975 
      2 C         -48.0986  -30.4985    4.9984 C.2       0 UNK         0.4852 
      3 O         -48.2051  -29.7310    4.0405 O.2       0 UNK        -0.5216 
      4 N         -48.4096  -30.1367    6.2504 N.am      1 UNK        -0.4461 
      5 CA        -48.9301  -28.8275    6.6632 C.3       1 UNK         0.0864 
      6 C6        -49.7097  -28.9477    8.0015 C.3       14 UNK        -0.0898 
      7 S7        -50.7279  -27.4813    8.3909 S.3       14 UNK        -0.2598 
      8 C8        -52.4133  -28.1044    8.1240 C.3       14 UNK         0.0286 
      9 C9        -53.4229  -27.0910    8.6341 C.ar      14 UNK        -0.0844 
     10 C10       -53.7911  -26.0026    7.8418 C.ar      14 UNK        -0.0881 
     11 C11       -54.6521  -25.0206    8.3418 C.ar      14 UNK        -0.0643 
     12 C12       -55.1934  -25.1653    9.6251 C.ar      14 UNK        -0.0930 
     13 C13       -54.8426  -26.2611   10.4213 C.ar      14 UNK        -0.0827 
     14 C14       -53.9496  -27.2124    9.9209 C.ar      14 UNK        -0.1249 
     15 C15       -55.3737  -26.3885   11.8432 C.3       14 UNK         0.0141 
     16 S16       -56.9826  -27.2400   11.9330 S.3       14 UNK        -0.2313 
     17 C17       -56.5609  -28.9586   11.4798 C.3       14 UNK        -0.0915 
     18 CA        -56.4027  -29.9207   12.6866 C.3       13 UNK         0.0968 
     19 C         -56.1178  -31.3668   12.1812 C.2       13 UNK         0.5732 
     20 N         -54.9078  -31.8981   12.3266 N.am      13 UNK        -0.7310 
     21 O         -57.0149  -32.0175   11.6503 O.2       13 UNK        -0.5035 
     22 N         -55.4205  -29.4395   13.6721 N.am      13 UNK        -0.4233 
     23 C         -55.3125  -29.9211   14.9170 C.2       13 UNK         0.4989 
     24 O         -56.1365  -30.6917   15.4137 O.2       13 UNK        -0.4996 
     25 CA        -54.0951  -29.4846   15.7600 C.3       12 UNK         0.0216 
     26 CB        -53.5455  -30.6482   16.6122 C.3       12 UNK        -0.1964 
     27 N         -52.9903  -28.8439   15.0276 N.am      12 UNK        -0.4276 
     28 C         -52.2626  -29.3546   14.0207 C.2       12 UNK         0.5020 
     29 O         -52.5411  -30.4070   13.4433 O.2       12 UNK        -0.5489 
     30 CA        -51.0163  -28.5665   13.5753 C.3       11 UNK         0.0294 
     31 CB        -51.3225  -27.6712   12.3649 C.3       11 UNK        -0.2019 
     32 N         -50.4205  -27.7505   14.6360 N.am      11 UNK        -0.4493 
     33 C         -49.7133  -28.2381   15.6658 C.2       11 UNK         0.4932 
     34 O         -49.5429  -29.4395   15.8737 O.2       11 UNK        -0.5029 
     35 CA        -49.0749  -27.2151   16.6164 C.3       10 UNK         0.0280 
     36 CB        -47.8129  -26.6074   15.9800 C.3       10 UNK        -0.1976 
     37 N         -50.0150  -26.1436   16.9425 N.am      10 UNK        -0.4242 
     38 C         -50.6883  -26.0346   18.0962 C.2       10 UNK         0.5072 
     39 O         -50.5472  -26.8023   19.0493 O.2       10 UNK        -0.5224 
     40 CA        -51.6942  -24.8717   18.2224 C.3       9 UNK         0.0343 
     41 CB        -51.0412  -23.6741   18.9314 C.3       9 UNK        -0.2003 
     42 N         -52.2543  -24.4243   16.9438 N.am      9 UNK        -0.4272 
     43 C         -53.0196  -25.1772   16.1420 C.2       9 UNK         0.4988 
     44 O         -53.3818  -26.3193   16.4175 O.2       9 UNK        -0.5108 
     45 CA        -53.4037  -24.5900   14.7737 C.3       8 UNK         0.0248 
     46 CB        -54.7558  -23.8655   14.8611 C.3       8 UNK        -0.2001 
     47 N         -52.4096  -23.6969   14.1663 N.am      8 UNK        -0.4140 
     48 C         -51.1119  -23.9697   13.9707 C.2       8 UNK         0.5028 
     49 O         -50.5515  -24.9837   14.3902 O.2       8 UNK        -0.5428 
     50 CA        -50.3339  -22.9642   13.1118 C.3       7 UNK         0.0264 
     51 CB        -48.8123  -23.0726   13.3124 C.3       7 UNK        -0.1988 
     52 N         -50.6589  -23.2072   11.7074 N.am      7 UNK        -0.4454 
     53 C         -51.7589  -22.7439   11.0949 C.2       7 UNK         0.5027 
     54 O         -52.5578  -21.9851   11.6498 O.2       7 UNK        -0.5083 
     55 CA        -52.0500  -23.2372    9.6591 C.3       6 UNK         0.0844 
     56 C56       -52.9409  -22.2435    8.8569 C.3       14 UNK        -0.0967 
     57 S57       -53.4020  -22.8301    7.1880 S.3       14 UNK        -0.2604 
     58 C58       -54.9321  -23.7731    7.5163 C.3       14 UNK         0.0134 
     59 N         -50.8570  -23.6983    8.9429 N.am      6 UNK        -0.4116 
     60 C         -49.7852  -22.9721    8.6037 C.2       5 UNK         0.5034 
     61 O         -49.6585  -21.7666    8.8286 O.2       5 UNK        -0.5045 
     62 CA        -48.6470  -23.7494    7.9171 C.3       5 UNK         0.0224 
     63 CB        -48.0089  -22.9186    6.7894 C.3       5 UNK        -0.1978 
     64 N         -47.5874  -24.2019    8.8277 N.am      5 UNK        -0.4737 
     65 C         -47.7284  -24.8701    9.9843 C.2       4 UNK         0.5027 
     66 O         -48.8071  -25.0821   10.5391 O.2       4 UNK        -0.5211 
     67 CA        -46.4340  -25.4417   10.5864 C.3       4 UNK         0.0297 
     68 CB        -46.6883  -26.4254   11.7471 C.3       4 UNK        -0.1993 
     69 N         -45.6861  -26.1228    9.5306 N.am      4 UNK        -0.4486 
     70 C         -44.3540  -26.1666    9.4099 C.2       3 UNK         0.4961 
     71 O         -43.5814  -25.6278   10.2033 O.2       3 UNK        -0.5105 
     72 CA        -43.7678  -26.9447    8.2117 C.3       3 UNK         0.0299 
     73 CB        -43.2862  -28.3330    8.6635 C.3       3 UNK        -0.1972 
     74 N         -44.6929  -27.1061    7.0849 N.am      3 UNK        -0.4305 
     75 C         -45.1374  -26.1089    6.3076 C.2       2 UNK         0.5006 
     76 O         -44.7556  -24.9429    6.4137 O.2       2 UNK        -0.5106 
     77 CA        -46.2025  -26.4488    5.2437 C.3       2 UNK         0.0296 
     78 CB        -45.5243  -26.7477    3.8968 C.3       2 UNK        -0.2002 
     79 N         -47.1479  -27.5347    5.5505 N.am      2 UNK        -0.4032 
     80 C         -47.8143  -27.7543    6.6938 C.2       1 UNK         0.5000 
     81 O         -47.5643  -27.1651    7.7428 O.2       1 UNK        -0.5238 
     82 H82       -46.5758  -31.8829    4.3628 H         1 UNK         0.0889 
     83 H83       -48.2261  -32.4455    4.0864 H         1 UNK         0.0889 
     84 H84       -47.5436  -32.4795    5.7127 H         1 UNK         0.0889 
     85 H85       -48.2702  -30.8008    6.9989 H         1 UNK         0.3028 
     86 H86       -49.6458  -28.5047    5.9038 H         1 UNK         0.0864 
     87 H87       -49.0259  -29.1223    8.8344 H         1 UNK         0.0720 
     88 H88       -50.3625  -29.8213    7.9711 H         1 UNK         0.0720 
     89 H89       -52.5425  -29.0564    8.6413 H         1 UNK         0.0814 
     90 H90       -52.5710  -28.2987    7.0620 H         1 UNK         0.0814 
     91 H91       -53.3616  -25.8872    6.8558 H         1 UNK         0.1469 
     92 H92       -55.8582  -24.4087   10.0190 H         1 UNK         0.1381 
     93 H93       -53.6522  -28.0469   10.5384 H         1 UNK         0.1206 
     94 H94       -55.4869  -25.3942   12.2764 H         1 UNK         0.0813 
     95 H95       -54.6519  -26.9083   12.4727 H         1 UNK         0.0813 
     96 H96       -55.6671  -28.9787   10.8613 H         1 UNK         0.0638 
     97 H97       -57.3651  -29.3126   10.8321 H         1 UNK         0.0638 
     98 H98       -57.3696  -29.9614   13.1918 H         1 UNK         0.0568 
     99 H99       -54.7401  -32.8350   11.9977 H         1 UNK         0.3450 
    100 H100      -54.1512  -31.3699   12.7510 H         1 UNK         0.3450 
    101 H101      -54.6900  -28.8394   13.3263 H         1 UNK         0.2987 
    102 H102      -54.4765  -28.7298   16.4486 H         1 UNK         0.0766 
    103 H103      -54.3094  -31.0465   17.2811 H         1 UNK         0.0798 
    104 H104      -52.7121  -30.3229   17.2354 H         1 UNK         0.0798 
    105 H105      -53.1955  -31.4721   15.9891 H         1 UNK         0.0798 
    106 H106      -52.7185  -27.9413   15.4054 H         1 UNK         0.3198 
    107 H107      -50.2687  -29.2993   13.2637 H         1 UNK         0.0843 
    108 H108      -52.1134  -26.9513   12.5752 H         1 UNK         0.0831 
    109 H109      -51.6322  -28.2750   11.5125 H         1 UNK         0.0831 
    110 H110      -50.4409  -27.1114   12.0490 H         1 UNK         0.0831 
    111 H111      -50.4787  -26.7381   14.5207 H         1 UNK         0.3133 
    112 H112      -48.7713  -27.7430   17.5228 H         1 UNK         0.0566 
    113 H113      -47.3130  -25.9263   16.6687 H         1 UNK         0.0814 
    114 H114      -48.0427  -26.0513   15.0700 H         1 UNK         0.0814 
    115 H115      -47.0955  -27.3852   15.7149 H         1 UNK         0.0814 
    116 H116      -50.2285  -25.4964   16.1880 H         1 UNK         0.3091 
    117 H117      -52.5225  -25.2250   18.8403 H         1 UNK         0.0702 
    118 H118      -51.7622  -22.8761   19.1098 H         1 UNK         0.0785 
    119 H119      -50.2169  -23.2604   18.3489 H         1 UNK         0.0785 
    120 H120      -50.6390  -23.9674   19.9022 H         1 UNK         0.0785 
    121 H121      -51.9991  -23.4990   16.6310 H         1 UNK         0.2998 
    122 H122      -53.5161  -25.4341   14.0921 H         1 UNK         0.0697 
    123 H123      -54.7054  -22.9969   15.5189 H         1 UNK         0.0825 
    124 H124      -55.5294  -24.5276   15.2533 H         1 UNK         0.0825 
    125 H125      -55.0908  -23.5235   13.8817 H         1 UNK         0.0825 
    126 H126      -52.7712  -22.8583   13.7281 H         1 UNK         0.3029 
    127 H127      -50.6377  -21.9541   13.3957 H         1 UNK         0.0897 
    128 H128      -48.4426  -24.0658   13.0620 H         1 UNK         0.0792 
    129 H129      -48.5415  -22.8780   14.3508 H         1 UNK         0.0792 
    130 H130      -48.2782  -22.3516   12.6935 H         1 UNK         0.0792 
    131 H131      -50.0631  -23.8732   11.2162 H         1 UNK         0.3086 
    132 H132      -52.6271  -24.1444    9.8207 H         1 UNK         0.0583 
    133 H133      -53.8597  -22.0234    9.4039 H         1 UNK         0.1020 
    134 H134      -52.4252  -21.2881    8.7461 H         1 UNK         0.1020 
    135 H135      -55.6584  -23.1264    8.0108 H         1 UNK         0.0694 
    136 H136      -55.3771  -24.0688    6.5653 H         1 UNK         0.0694 
    137 H137      -50.8259  -24.6942    8.7694 H         1 UNK         0.2989 
    138 H138      -49.0758  -24.6461    7.4638 H         1 UNK         0.1055 
    139 H139      -47.5078  -22.0306    7.1767 H         1 UNK         0.0806 
    140 H140      -48.7638  -22.5824    6.0773 H         1 UNK         0.0806 
    141 H141      -47.2737  -23.4970    6.2315 H         1 UNK         0.0806 
    142 H142      -46.6449  -24.0962    8.4798 H         1 UNK         0.3061 
    143 H143      -45.8583  -24.5940   10.9634 H         1 UNK         0.0734 
    144 H144      -47.2906  -27.2753   11.4233 H         1 UNK         0.0832 
    145 H145      -45.7534  -26.8116   12.1530 H         1 UNK         0.0832 
    146 H146      -47.2206  -25.9446   12.5669 H         1 UNK         0.0832 
    147 H147      -46.2691  -26.5667    8.8177 H         1 UNK         0.3156 
    148 H148      -42.9015  -26.3845    7.8540 H         1 UNK         0.0589 
    149 H149      -44.1122  -28.9504    9.0189 H         1 UNK         0.0808 
    150 H150      -42.5674  -28.2502    9.4801 H         1 UNK         0.0808 
    151 H151      -42.7906  -28.8663    7.8520 H         1 UNK         0.0808 
    152 H152      -45.0766  -28.0281    6.9387 H         1 UNK         0.3098 
    153 H153      -46.8096  -25.5515    5.1166 H         1 UNK         0.0720 
    154 H154      -44.8379  -25.9475    3.6154 H         1 UNK         0.0791 
    155 H155      -46.2564  -26.8392    3.0942 H         1 UNK         0.0791 
    156 H156      -44.9493  -27.6739    3.9335 H         1 UNK         0.0791 
    157 H157      -47.4109  -28.1301    4.7694 H         1 UNK         0.3028 
@<TRIPOS>BOND
     1    1    2 1    
     2    1   82 1    
     3    1   83 1    
     4    1   84 1    
     5    2    3 2    
     6    2    4 am   BACKBONE|DICT|INTERRES
     7    4    5 1    
     8    4   85 1    
     9    5    6 1    
    10    5   80 1    
    11    5   86 1    
    12    6    7 1    
    13    6   87 1    
    14    6   88 1    
    15    7    8 1    
    16    8    9 1    
    17    8   89 1    
    18    8   90 1    
    19    9   10 ar   
    20    9   14 ar   
    21   10   11 ar   
    22   10   91 1    
    23   11   12 ar   
    24   11   58 1    
    25   12   13 ar   
    26   12   92 1    
    27   13   14 ar   
    28   13   15 1    
    29   14   93 1    
    30   15   16 1    
    31   15   94 1    
    32   15   95 1    
    33   16   17 1    
    34   17   18 1    
    35   17   96 1    
    36   17   97 1    
    37   18   19 1    
    38   18   22 1    
    39   18   98 1    
    40   19   20 am   BACKBONE|DICT|INTERRES
    41   19   21 2    
    42   20   99 1    
    43   20  100 1    
    44   22   23 am   BACKBONE|DICT|INTERRES
    45   22  101 1    
    46   23   24 2    
    47   23   25 1    
    48   25   26 1    
    49   25   27 1    
    50   25  102 1    
    51   26  103 1    
    52   26  104 1    
    53   26  105 1    
    54   27   28 am   BACKBONE|DICT|INTERRES
    55   27  106 1    
    56   28   29 2    
    57   28   30 1    
    58   30   31 1    
    59   30   32 1    
    60   30  107 1    
    61   31  108 1    
    62   31  109 1    
    63   31  110 1    
    64   32   33 am   BACKBONE|DICT|INTERRES
    65   32  111 1    
    66   33   34 2    
    67   33   35 1    
    68   35   36 1    
    69   35   37 1    
    70   35  112 1    
    71   36  113 1    
    72   36  114 1    
    73   36  115 1    
    74   37   38 am   BACKBONE|DICT|INTERRES
    75   37  116 1    
    76   38   39 2    
    77   38   40 1    
    78   40   41 1    
    79   40   42 1    
    80   40  117 1    
    81   41  118 1    
    82   41  119 1    
    83   41  120 1    
    84   42   43 am   BACKBONE|DICT|INTERRES
    85   42  121 1    
    86   43   44 2    
    87   43   45 1    
    88   45   46 1    
    89   45   47 1    
    90   45  122 1    
    91   46  123 1    
    92   46  124 1    
    93   46  125 1    
    94   47   48 am   BACKBONE|DICT|INTERRES
    95   47  126 1    
    96   48   49 2    
    97   48   50 1    
    98   50   51 1    
    99   50   52 1    
   100   50  127 1    
   101   51  128 1    
   102   51  129 1    
   103   51  130 1    
   104   52   53 am   BACKBONE|DICT|INTERRES
   105   52  131 1    
   106   53   54 2    
   107   53   55 1    
   108   55   56 1    
   109   55   59 1    
   110   55  132 1    
   111   56   57 1    
   112   56  133 1    
   113   56  134 1    
   114   57   58 1    
   115   58  135 1    
   116   58  136 1    
   117   59   60 am   BACKBONE|DICT|INTERRES
   118   59  137 1    
   119   60   61 2    
   120   60   62 1    
   121   62   63 1    
   122   62   64 1    
   123   62  138 1    
   124   63  139 1    
   125   63  140 1    
   126   63  141 1    
   127   64   65 am   BACKBONE|DICT|INTERRES
   128   64  142 1    
   129   65   66 2    
   130   65   67 1    
   131   67   68 1    
   132   67   69 1    
   133   67  143 1    
   134   68  144 1    
   135   68  145 1    
   136   68  146 1    
   137   69   70 am   BACKBONE|DICT|INTERRES
   138   69  147 1    
   139   70   71 2    
   140   70   72 1    
   141   72   73 1    
   142   72   74 1    
   143   72  148 1    
   144   73  149 1    
   145   73  150 1    
   146   73  151 1    
   147   74   75 am   BACKBONE|DICT|INTERRES
   148   74  152 1    
   149   75   76 2    
   150   75   77 1    
   151   77   78 1    
   152   77   79 1    
   153   77  153 1    
   154   78  154 1    
   155   78  155 1    
   156   78  156 1    
   157   79   80 am   BACKBONE|DICT|INTERRES
   158   79  157 1    
   159   80   81 2    
@<TRIPOS>SUBSTRUCTURE
     1 UNK         1 GROUP             0       ****    0 ROOT    
