@<TRIPOS>MOLECULE
3R207
157   159    1
SMALL
USER_CHARGES


@<TRIPOS>ATOM
      1 CA        -45.3242  -26.5313    5.3081 C.3       0 UNK        -0.1975 
      2 C         -46.6907  -27.1110    5.6429 C.2       0 UNK         0.4852 
      3 O         -46.8386  -27.7493    6.6840 O.2       0 UNK        -0.5216 
      4 N         -47.6780  -26.8969    4.7619 N.am      1 UNK        -0.4461 
      5 CA        -49.0773  -27.3180    4.9045 C.3       1 UNK         0.0864 
      6 C6        -49.2381  -28.8654    4.9921 C.3       14 UNK        -0.0898 
      7 S7        -50.8668  -29.4364    4.3958 S.3       14 UNK        -0.2598 
      8 C8        -51.0571  -31.0193    5.2732 C.3       14 UNK         0.0286 
      9 C9        -51.3176  -30.8443    6.7645 C.ar      14 UNK        -0.0844 
     10 C10       -50.3153  -31.1413    7.6920 C.ar      14 UNK        -0.0881 
     11 C11       -50.5610  -31.0528    9.0674 C.ar      14 UNK        -0.0643 
     12 C12       -51.8331  -30.6703    9.5087 C.ar      14 UNK        -0.0930 
     13 C13       -52.8512  -30.3867    8.5920 C.ar      14 UNK        -0.0827 
     14 C14       -52.5819  -30.4597    7.2211 C.ar      14 UNK        -0.1249 
     15 C15       -54.2653  -30.0991    9.0795 C.3       14 UNK         0.0141 
     16 S16       -54.4497  -28.4365    9.7971 S.3       14 UNK        -0.2313 
     17 C17       -56.2390  -28.4415   10.1663 C.3       14 UNK        -0.0915 
     18 CA        -56.6123  -28.6213   11.6634 C.3       13 UNK         0.0968 
     19 C         -56.1770  -29.9940   12.2491 C.2       13 UNK         0.5732 
     20 N         -56.8074  -31.0770   11.8146 N.am      13 UNK        -0.7310 
     21 O         -55.2661  -30.0934   13.0696 O.2       13 UNK        -0.5035 
     22 N         -56.1686  -27.4811   12.4752 N.am      13 UNK        -0.4233 
     23 C         -56.7495  -27.0926   13.6181 C.2       13 UNK         0.4989 
     24 O         -57.7464  -27.6426   14.0902 O.2       13 UNK        -0.4996 
     25 CA        -56.1471  -25.8895   14.3765 C.3       12 UNK         0.0216 
     26 CB        -55.5500  -26.3508   15.7172 C.3       12 UNK        -0.1964 
     27 N         -55.1357  -25.1128   13.6473 N.am      12 UNK        -0.4276 
     28 C         -55.3479  -24.4198   12.5171 C.2       12 UNK         0.5020 
     29 O         -56.4426  -24.3574   11.9556 O.2       12 UNK        -0.5489 
     30 CA        -54.1258  -23.7073   11.8981 C.3       11 UNK         0.0294 
     31 CB        -54.5176  -22.6480   10.8447 C.3       11 UNK        -0.2019 
     32 N         -53.2086  -23.1485   12.9017 N.am      11 UNK        -0.4493 
     33 C         -53.4928  -22.2088   13.8154 C.2       11 UNK         0.4932 
     34 O         -54.5845  -21.6431   13.8939 O.2       11 UNK        -0.5029 
     35 CA        -52.3689  -21.8328   14.8086 C.3       10 UNK         0.0280 
     36 CB        -52.9326  -21.1782   16.0875 C.3       10 UNK        -0.1976 
     37 N         -51.4331  -22.9036   15.1960 N.am      10 UNK        -0.4242 
     38 C         -51.7217  -24.1486   15.6057 C.2       10 UNK         0.5072 
     39 O         -52.8142  -24.6935   15.4437 O.2       10 UNK        -0.5224 
     40 CA        -50.5874  -24.8998   16.3208 C.3       9 UNK         0.0343 
     41 CB        -50.9306  -26.3739   16.6073 C.3       9 UNK        -0.2003 
     42 N         -49.3461  -24.8413   15.5504 N.am      9 UNK        -0.4272 
     43 C         -48.1729  -24.3645   15.9891 C.2       9 UNK         0.4988 
     44 O         -48.0289  -23.7870   17.0681 O.2       9 UNK        -0.5108 
     45 CA        -46.9574  -24.5891   15.0632 C.3       8 UNK         0.0248 
     46 CB        -45.6023  -24.3585   15.7658 C.3       8 UNK        -0.2001 
     47 N         -47.0009  -25.9007   14.4012 N.am      8 UNK        -0.4140 
     48 C         -47.0061  -27.1070   14.9912 C.2       8 UNK         0.5028 
     49 O         -46.7944  -27.2864   16.1913 O.2       8 UNK        -0.5428 
     50 CA        -47.3387  -28.3268   14.1148 C.3       7 UNK         0.0264 
     51 CB        -48.6967  -28.9253   14.5246 C.3       7 UNK        -0.1988 
     52 N         -47.3905  -28.0181   12.6810 N.am      7 UNK        -0.4454 
     53 C         -46.5905  -28.5757   11.7602 C.2       7 UNK         0.5027 
     54 O         -45.6523  -29.3264   12.0345 O.2       7 UNK        -0.5083 
     55 CA        -46.8823  -28.2448   10.2806 C.3       6 UNK         0.0844 
     56 C56       -48.0715  -29.0561    9.7112 C.3       14 UNK        -0.0967 
     57 S57       -47.8125  -30.8571    9.6563 S.3       14 UNK        -0.2604 
     58 C58       -49.4883  -31.4407   10.0856 C.3       14 UNK         0.0134 
     59 N         -47.1035  -26.8172   10.0616 N.am      6 UNK        -0.4116 
     60 C         -46.1839  -25.8520   10.1824 C.2       5 UNK         0.5034 
     61 O         -45.0276  -26.0422   10.5588 O.2       5 UNK        -0.5045 
     62 CA        -46.6335  -24.4295    9.8241 C.3       5 UNK         0.0224 
     63 CB        -46.5566  -24.2092    8.3051 C.3       5 UNK        -0.1978 
     64 N         -48.0031  -24.1774   10.2778 N.am      5 UNK        -0.4737 
     65 C         -48.3230  -23.3826   11.3063 C.2       4 UNK         0.5027 
     66 O         -47.5019  -22.7400   11.9591 O.2       4 UNK        -0.5211 
     67 CA        -49.8126  -23.2818   11.6811 C.3       4 UNK         0.0297 
     68 CB        -50.4573  -22.1143   10.9154 C.3       4 UNK        -0.1993 
     69 N         -50.5716  -24.5154   11.4395 N.am      4 UNK        -0.4486 
     70 C         -50.3339  -25.6891   12.0439 C.2       3 UNK         0.4961 
     71 O         -49.4980  -25.8375   12.9316 O.2       3 UNK        -0.5105 
     72 CA        -51.1112  -26.9262   11.5650 C.3       3 UNK         0.0299 
     73 CB        -52.2621  -27.2526   12.5275 C.3       3 UNK        -0.1972 
     74 N         -51.6178  -26.8595   10.1901 N.am      3 UNK        -0.4305 
     75 C         -50.8851  -26.6317    9.0920 C.2       2 UNK         0.5006 
     76 O         -49.6873  -26.3430    9.1251 O.2       2 UNK        -0.5106 
     77 CA        -51.6448  -26.7076    7.7602 C.3       2 UNK         0.0296 
     78 CB        -52.3582  -25.3765    7.4505 C.3       2 UNK        -0.2002 
     79 N         -50.8032  -27.1560    6.6470 N.am      2 UNK        -0.4032 
     80 C         -49.8012  -26.5222    6.0191 C.2       1 UNK         0.5000 
     81 O         -49.4686  -25.3539    6.2383 O.2       1 UNK        -0.5238 
     82 H82       -44.6174  -27.3353    5.1050 H         1 UNK         0.0889 
     83 H83       -44.9453  -25.9512    6.1485 H         1 UNK         0.0889 
     84 H84       -45.3596  -25.8792    4.4356 H         1 UNK         0.0889 
     85 H85       -47.4864  -26.3354    3.9439 H         1 UNK         0.3028 
     86 H86       -49.5502  -26.9928    3.9763 H         1 UNK         0.0864 
     87 H87       -48.4897  -29.3517    4.3644 H         1 UNK         0.0720 
     88 H88       -49.0468  -29.2224    6.0053 H         1 UNK         0.0720 
     89 H89       -50.1717  -31.6337    5.1016 H         1 UNK         0.0814 
     90 H90       -51.8908  -31.5650    4.8290 H         1 UNK         0.0814 
     91 H91       -49.3451  -31.4660    7.3421 H         1 UNK         0.1469 
     92 H92       -52.0468  -30.6285   10.5683 H         1 UNK         0.1381 
     93 H93       -53.3676  -30.2583    6.5054 H         1 UNK         0.1206 
     94 H94       -54.5427  -30.8457    9.8247 H         1 UNK         0.0813 
     95 H95       -54.9746  -30.2121    8.2580 H         1 UNK         0.0813 
     96 H96       -56.6461  -27.4946    9.8081 H         1 UNK         0.0638 
     97 H97       -56.7329  -29.2055    9.5639 H         1 UNK         0.0638 
     98 H98       -57.7037  -28.6208   11.7011 H         1 UNK         0.0568 
     99 H99       -56.5362  -31.9771   12.1778 H         1 UNK         0.3450 
    100 H100      -57.5568  -31.0137   11.1437 H         1 UNK         0.3450 
    101 H101      -55.3400  -27.0051   12.1590 H         1 UNK         0.2987 
    102 H102      -56.9769  -25.2135   14.5927 H         1 UNK         0.0766 
    103 H103      -55.2539  -25.5005   16.3320 H         1 UNK         0.0798 
    104 H104      -54.6712  -26.9802   15.5702 H         1 UNK         0.0798 
    105 H105      -56.2724  -26.9271   16.2968 H         1 UNK         0.0798 
    106 H106      -54.2289  -25.0349   14.1025 H         1 UNK         0.3198 
    107 H107      -53.5698  -24.4823   11.3709 H         1 UNK         0.0843 
    108 H108      -53.6412  -22.1890   10.3892 H         1 UNK         0.0831 
    109 H109      -55.1273  -21.8534   11.2754 H         1 UNK         0.0831 
    110 H110      -55.0976  -23.0964   10.0370 H         1 UNK         0.0831 
    111 H111      -52.2896  -23.5646   12.9466 H         1 UNK         0.3133 
    112 H112      -51.7661  -21.0823   14.2950 H         1 UNK         0.0566 
    113 H113      -52.1342  -20.8626   16.7592 H         1 UNK         0.0814 
    114 H114      -53.5213  -20.2899   15.8546 H         1 UNK         0.0814 
    115 H115      -53.5790  -21.8652   16.6353 H         1 UNK         0.0814 
    116 H116      -50.4793  -22.6005   15.3368 H         1 UNK         0.3091 
    117 H117      -50.4586  -24.4013   17.2834 H         1 UNK         0.0702 
    118 H118      -50.1232  -26.8689   17.1475 H         1 UNK         0.0785 
    119 H119      -51.1078  -26.9325   15.6898 H         1 UNK         0.0785 
    120 H120      -51.8294  -26.4566   17.2199 H         1 UNK         0.0785 
    121 H121      -49.3769  -25.2627   14.6227 H         1 UNK         0.2998 
    122 H122      -47.0428  -23.8449   14.2725 H         1 UNK         0.0697 
    123 H123      -45.4694  -25.0203   16.6221 H         1 UNK         0.0825 
    124 H124      -45.5236  -23.3347   16.1335 H         1 UNK         0.0825 
    125 H125      -44.7690  -24.5213   15.0825 H         1 UNK         0.0825 
    126 H126      -47.2248  -25.8724   13.4171 H         1 UNK         0.3029 
    127 H127      -46.5676  -29.0716   14.3226 H         1 UNK         0.0897 
    128 H128      -48.9087  -29.8401   13.9708 H         1 UNK         0.0792 
    129 H129      -48.7123  -29.1793   15.5855 H         1 UNK         0.0792 
    130 H130      -49.5153  -28.2284   14.3444 H         1 UNK         0.0792 
    131 H131      -48.1249  -27.3861   12.3880 H         1 UNK         0.3086 
    132 H132      -45.9940  -28.5155    9.7055 H         1 UNK         0.0583 
    133 H133      -48.9794  -28.8412   10.2721 H         1 UNK         0.1020 
    134 H134      -48.2798  -28.7370    8.6885 H         1 UNK         0.1020 
    135 H135      -49.4667  -32.5281   10.1658 H         1 UNK         0.0694 
    136 H136      -49.7446  -31.0639   11.0773 H         1 UNK         0.0694 
    137 H137      -48.0208  -26.5693    9.6955 H         1 UNK         0.2989 
    138 H138      -45.9361  -23.7361   10.3000 H         1 UNK         0.1055 
    139 H139      -45.5423  -24.3712    7.9392 H         1 UNK         0.0806 
    140 H140      -46.8389  -23.1908    8.0382 H         1 UNK         0.0806 
    141 H141      -47.2155  -24.8900    7.7644 H         1 UNK         0.0806 
    142 H142      -48.7411  -24.6910    9.8061 H         1 UNK         0.3061 
    143 H143      -49.8597  -23.0609   12.7490 H         1 UNK         0.0734 
    144 H144      -51.4605  -21.8960   11.2739 H         1 UNK         0.0832 
    145 H145      -49.8762  -21.1990   11.0395 H         1 UNK         0.0832 
    146 H146      -50.5169  -22.3154    9.8450 H         1 UNK         0.0832 
    147 H147      -51.2271  -24.5031   10.6723 H         1 UNK         0.3156 
    148 H148      -50.4142  -27.7626   11.6090 H         1 UNK         0.0589 
    149 H149      -53.0568  -26.5134   12.4749 H         1 UNK         0.0808 
    150 H150      -52.6966  -28.2288   12.3106 H         1 UNK         0.0808 
    151 H151      -51.9169  -27.2851   13.5605 H         1 UNK         0.0808 
    152 H152      -52.5872  -27.1232   10.0622 H         1 UNK         0.3098 
    153 H153      -52.4084  -27.4792    7.8598 H         1 UNK         0.0720 
    154 H154      -52.8791  -25.4199    6.4940 H         1 UNK         0.0791 
    155 H155      -51.6626  -24.5374    7.4160 H         1 UNK         0.0791 
    156 H156      -53.1033  -25.1459    8.2128 H         1 UNK         0.0791 
    157 H157      -50.9745  -28.1095    6.3512 H         1 UNK         0.3028 
@<TRIPOS>BOND
     1    1    2 1    
     2    1   82 1    
     3    1   83 1    
     4    1   84 1    
     5    2    3 2    
     6    2    4 am   BACKBONE|DICT|INTERRES
     7    4    5 1    
     8    4   85 1    
     9    5    6 1    
    10    5   80 1    
    11    5   86 1    
    12    6    7 1    
    13    6   87 1    
    14    6   88 1    
    15    7    8 1    
    16    8    9 1    
    17    8   89 1    
    18    8   90 1    
    19    9   10 ar   
    20    9   14 ar   
    21   10   11 ar   
    22   10   91 1    
    23   11   12 ar   
    24   11   58 1    
    25   12   13 ar   
    26   12   92 1    
    27   13   14 ar   
    28   13   15 1    
    29   14   93 1    
    30   15   16 1    
    31   15   94 1    
    32   15   95 1    
    33   16   17 1    
    34   17   18 1    
    35   17   96 1    
    36   17   97 1    
    37   18   19 1    
    38   18   22 1    
    39   18   98 1    
    40   19   20 am   BACKBONE|DICT|INTERRES
    41   19   21 2    
    42   20   99 1    
    43   20  100 1    
    44   22   23 am   BACKBONE|DICT|INTERRES
    45   22  101 1    
    46   23   24 2    
    47   23   25 1    
    48   25   26 1    
    49   25   27 1    
    50   25  102 1    
    51   26  103 1    
    52   26  104 1    
    53   26  105 1    
    54   27   28 am   BACKBONE|DICT|INTERRES
    55   27  106 1    
    56   28   29 2    
    57   28   30 1    
    58   30   31 1    
    59   30   32 1    
    60   30  107 1    
    61   31  108 1    
    62   31  109 1    
    63   31  110 1    
    64   32   33 am   BACKBONE|DICT|INTERRES
    65   32  111 1    
    66   33   34 2    
    67   33   35 1    
    68   35   36 1    
    69   35   37 1    
    70   35  112 1    
    71   36  113 1    
    72   36  114 1    
    73   36  115 1    
    74   37   38 am   BACKBONE|DICT|INTERRES
    75   37  116 1    
    76   38   39 2    
    77   38   40 1    
    78   40   41 1    
    79   40   42 1    
    80   40  117 1    
    81   41  118 1    
    82   41  119 1    
    83   41  120 1    
    84   42   43 am   BACKBONE|DICT|INTERRES
    85   42  121 1    
    86   43   44 2    
    87   43   45 1    
    88   45   46 1    
    89   45   47 1    
    90   45  122 1    
    91   46  123 1    
    92   46  124 1    
    93   46  125 1    
    94   47   48 am   BACKBONE|DICT|INTERRES
    95   47  126 1    
    96   48   49 2    
    97   48   50 1    
    98   50   51 1    
    99   50   52 1    
   100   50  127 1    
   101   51  128 1    
   102   51  129 1    
   103   51  130 1    
   104   52   53 am   BACKBONE|DICT|INTERRES
   105   52  131 1    
   106   53   54 2    
   107   53   55 1    
   108   55   56 1    
   109   55   59 1    
   110   55  132 1    
   111   56   57 1    
   112   56  133 1    
   113   56  134 1    
   114   57   58 1    
   115   58  135 1    
   116   58  136 1    
   117   59   60 am   BACKBONE|DICT|INTERRES
   118   59  137 1    
   119   60   61 2    
   120   60   62 1    
   121   62   63 1    
   122   62   64 1    
   123   62  138 1    
   124   63  139 1    
   125   63  140 1    
   126   63  141 1    
   127   64   65 am   BACKBONE|DICT|INTERRES
   128   64  142 1    
   129   65   66 2    
   130   65   67 1    
   131   67   68 1    
   132   67   69 1    
   133   67  143 1    
   134   68  144 1    
   135   68  145 1    
   136   68  146 1    
   137   69   70 am   BACKBONE|DICT|INTERRES
   138   69  147 1    
   139   70   71 2    
   140   70   72 1    
   141   72   73 1    
   142   72   74 1    
   143   72  148 1    
   144   73  149 1    
   145   73  150 1    
   146   73  151 1    
   147   74   75 am   BACKBONE|DICT|INTERRES
   148   74  152 1    
   149   75   76 2    
   150   75   77 1    
   151   77   78 1    
   152   77   79 1    
   153   77  153 1    
   154   78  154 1    
   155   78  155 1    
   156   78  156 1    
   157   79   80 am   BACKBONE|DICT|INTERRES
   158   79  157 1    
   159   80   81 2    
@<TRIPOS>SUBSTRUCTURE
     1 UNK         1 GROUP             0       ****    0 ROOT    
