@<TRIPOS>MOLECULE
3R207
157   159    1
SMALL
USER_CHARGES


@<TRIPOS>ATOM
      1 CA        -44.8515  -27.7243    6.9284 C.3       0 UNK        -0.1975 
      2 C         -46.2656  -27.6628    6.3703 C.2       0 UNK         0.4852 
      3 O         -46.6355  -26.6588    5.7612 O.2       0 UNK        -0.5216 
      4 N         -47.0525  -28.7297    6.5639 N.am      1 UNK        -0.4461 
      5 CA        -48.4456  -28.8373    6.1184 C.3       1 UNK         0.0864 
      6 C6        -48.9436  -30.3045    6.1126 C.3       14 UNK        -0.0898 
      7 S7        -48.7862  -31.1623    7.7166 S.3       14 UNK        -0.2598 
      8 C8        -50.4158  -31.9653    7.8629 C.3       14 UNK         0.0286 
      9 C9        -51.5138  -31.0093    8.3134 C.ar      14 UNK        -0.0844 
     10 C10       -51.4319  -30.4001    9.5696 C.ar      14 UNK        -0.0881 
     11 C11       -52.4717  -29.5924   10.0336 C.ar      14 UNK        -0.0643 
     12 C12       -53.5926  -29.3926    9.2286 C.ar      14 UNK        -0.0930 
     13 C13       -53.6970  -29.9864    7.9674 C.ar      14 UNK        -0.0827 
     14 C14       -52.6444  -30.7919    7.5149 C.ar      14 UNK        -0.1249 
     15 C15       -54.9511  -29.8178    7.1051 C.3       14 UNK         0.0141 
     16 S16       -55.8556  -28.2492    7.3829 S.3       14 UNK        -0.2313 
     17 C17       -57.4330  -28.8013    8.1269 C.3       14 UNK        -0.0915 
     18 CA        -57.4396  -28.9417    9.6789 C.3       13 UNK         0.0968 
     19 C         -56.9203  -30.3343   10.1600 C.2       13 UNK         0.5732 
     20 N         -56.0524  -30.4259   11.1590 N.am      13 UNK        -0.7310 
     21 O         -57.3323  -31.3609    9.6250 O.2       13 UNK        -0.5035 
     22 N         -56.8786  -27.7458   10.3390 N.am      13 UNK        -0.4233 
     23 C         -57.0103  -27.4236   11.6311 C.2       13 UNK         0.4989 
     24 O         -57.6327  -28.0997   12.4534 O.2       13 UNK        -0.4996 
     25 CA        -56.3349  -26.1292   12.0967 C.3       12 UNK         0.0216 
     26 CB        -57.3384  -24.9633   12.1491 C.3       12 UNK        -0.1964 
     27 N         -55.7728  -26.3813   13.4202 N.am      12 UNK        -0.4276 
     28 C         -54.7277  -25.7467   13.9616 C.2       12 UNK         0.5020 
     29 O         -54.2028  -24.7442   13.4694 O.2       12 UNK        -0.5489 
     30 CA        -54.1793  -26.3529   15.2640 C.3       11 UNK         0.0294 
     31 CB        -53.6970  -27.8021   15.0570 C.3       11 UNK        -0.2019 
     32 N         -53.0450  -25.5731   15.7544 N.am      11 UNK        -0.4493 
     33 C         -52.9614  -24.9984   16.9592 C.2       11 UNK         0.4932 
     34 O         -53.8651  -25.0241   17.7976 O.2       11 UNK        -0.5029 
     35 CA        -51.6272  -24.2974   17.2808 C.3       10 UNK         0.0280 
     36 CB        -51.5137  -23.8423   18.7512 C.3       10 UNK        -0.1976 
     37 N         -50.4664  -25.1065   16.8925 N.am      10 UNK        -0.4242 
     38 C         -50.1336  -26.3343   17.3244 C.2       10 UNK         0.5072 
     39 O         -50.7484  -26.9469   18.1987 O.2       10 UNK        -0.5224 
     40 CA        -48.9159  -27.0163   16.6665 C.3       9 UNK         0.0343 
     41 CB        -49.3775  -28.1618   15.7494 C.3       9 UNK        -0.2003 
     42 N         -48.0683  -26.1017   15.8962 N.am      9 UNK        -0.4272 
     43 C         -47.2622  -25.1729   16.4298 C.2       9 UNK         0.4988 
     44 O         -47.0691  -25.0461   17.6393 O.2       9 UNK        -0.5108 
     45 CA        -46.5895  -24.1927   15.4524 C.3       8 UNK         0.0248 
     46 CB        -45.2704  -24.7760   14.9217 C.3       8 UNK        -0.2001 
     47 N         -47.4564  -23.8104   14.3308 N.am      8 UNK        -0.4140 
     48 C         -48.6137  -23.1421   14.4595 C.2       8 UNK         0.5028 
     49 O         -49.0508  -22.7358   15.5357 O.2       8 UNK        -0.5428 
     50 CA        -49.4573  -22.9352   13.1914 C.3       7 UNK         0.0264 
     51 CB        -48.8967  -21.7863   12.3386 C.3       7 UNK        -0.1988 
     52 N         -49.5629  -24.1506   12.3835 N.am      7 UNK        -0.4454 
     53 C         -50.1591  -25.2859   12.7774 C.2       7 UNK         0.5027 
     54 O         -50.7488  -25.4077   13.8531 O.2       7 UNK        -0.5083 
     55 CA        -50.0121  -26.5099   11.8462 C.3       6 UNK         0.0844 
     56 C56       -51.1062  -26.5820   10.7569 C.3       14 UNK        -0.0967 
     57 S57       -52.6928  -27.1804   11.4084 S.3       14 UNK        -0.2604 
     58 C58       -52.4221  -28.9815   11.4258 C.3       14 UNK         0.0134 
     59 N         -48.6801  -26.5932   11.2499 N.am      6 UNK        -0.4116 
     60 C         -47.5552  -26.8403   11.9302 C.2       5 UNK         0.5034 
     61 O         -47.5126  -27.0410   13.1437 O.2       5 UNK        -0.5045 
     62 CA        -46.2543  -26.8197   11.1149 C.3       5 UNK         0.0224 
     63 CB        -46.0897  -28.1240   10.3189 C.3       5 UNK        -0.1978 
     64 N         -46.1769  -25.6637   10.2139 N.am      5 UNK        -0.4737 
     65 C         -46.0751  -24.3971   10.6410 C.2       4 UNK         0.5027 
     66 O         -46.0334  -24.0793   11.8285 O.2       4 UNK        -0.5211 
     67 CA        -46.0439  -23.2921    9.5719 C.3       4 UNK         0.0297 
     68 CB        -44.6291  -23.1550    8.9870 C.3       4 UNK        -0.1993 
     69 N         -47.0113  -23.4504    8.4797 N.am      4 UNK        -0.4486 
     70 C         -48.3319  -23.6364    8.6143 C.2       3 UNK         0.4961 
     71 O         -48.8914  -23.8297    9.6931 O.2       3 UNK        -0.5105 
     72 CA        -49.1891  -23.6158    7.3437 C.3       3 UNK         0.0299 
     73 CB        -48.4141  -23.3472    6.0358 C.3       3 UNK        -0.1972 
     74 N         -49.8724  -24.8973    7.2685 N.am      3 UNK        -0.4305 
     75 C         -51.0693  -25.1409    6.7334 C.2       2 UNK         0.5006 
     76 O         -51.7754  -24.2709    6.2198 O.2       2 UNK        -0.5106 
     77 CA        -51.5372  -26.6138    6.7572 C.3       2 UNK         0.0296 
     78 CB        -52.8183  -26.8275    5.9318 C.3       2 UNK        -0.2002 
     79 N         -50.5130  -27.5444    6.2690 N.am      2 UNK        -0.4032 
     80 C         -49.3861  -27.8987    6.9035 C.2       1 UNK         0.5000 
     81 O         -49.0724  -27.4866    8.0271 O.2       1 UNK        -0.5238 
     82 H82       -44.6518  -28.6716    7.4288 H         1 UNK         0.0889 
     83 H83       -44.6916  -26.9179    7.6431 H         1 UNK         0.0889 
     84 H84       -44.1275  -27.6106    6.1220 H         1 UNK         0.0889 
     85 H85       -46.7156  -29.5156    7.1014 H         1 UNK         0.3028 
     86 H86       -48.4631  -28.4933    5.0815 H         1 UNK         0.0864 
     87 H87       -49.9780  -30.3537    5.7673 H         1 UNK         0.0720 
     88 H88       -48.3695  -30.8756    5.3814 H         1 UNK         0.0720 
     89 H89       -50.3387  -32.7709    8.5943 H         1 UNK         0.0814 
     90 H90       -50.6720  -32.4432    6.9159 H         1 UNK         0.0814 
     91 H91       -50.5665  -30.5775   10.1935 H         1 UNK         0.1469 
     92 H92       -54.3932  -28.7793    9.6098 H         1 UNK         0.1381 
     93 H93       -52.7199  -31.2758    6.5507 H         1 UNK         0.1206 
     94 H94       -54.6758  -29.8599    6.0504 H         1 UNK         0.0813 
     95 H95       -55.6106  -30.6681    7.2809 H         1 UNK         0.0813 
     96 H96       -58.1750  -28.0508    7.8503 H         1 UNK         0.0638 
     97 H97       -57.7701  -29.7149    7.6342 H         1 UNK         0.0638 
     98 H98       -58.4916  -28.9591    9.9695 H         1 UNK         0.0568 
     99 H99       -55.7378  -31.3366   11.4519 H         1 UNK         0.3450 
    100 H100      -55.7576  -29.6024   11.6547 H         1 UNK         0.3450 
    101 H101      -56.3432  -27.1396    9.7347 H         1 UNK         0.2987 
    102 H102      -55.5258  -25.8820   11.4057 H         1 UNK         0.0766 
    103 H103      -56.8561  -24.0390   12.4676 H         1 UNK         0.0798 
    104 H104      -58.1577  -25.1683   12.8394 H         1 UNK         0.0798 
    105 H105      -57.7751  -24.7790   11.1668 H         1 UNK         0.0798 
    106 H106      -56.1629  -27.1945   13.8813 H         1 UNK         0.3198 
    107 H107      -54.9940  -26.3513   15.9911 H         1 UNK         0.0843 
    108 H108      -52.8856  -27.8536   14.3304 H         1 UNK         0.0831 
    109 H109      -54.4977  -28.4526   14.7042 H         1 UNK         0.0831 
    110 H110      -53.3280  -28.2280   15.9904 H         1 UNK         0.0831 
    111 H111      -52.2825  -25.4475   15.0911 H         1 UNK         0.3133 
    112 H112      -51.5951  -23.4035   16.6563 H         1 UNK         0.0566 
    113 H113      -50.5682  -23.3317   18.9346 H         1 UNK         0.0814 
    114 H114      -52.3129  -23.1456   19.0067 H         1 UNK         0.0814 
    115 H115      -51.5815  -24.6824   19.4431 H         1 UNK         0.0814 
    116 H116      -49.8941  -24.6989   16.1630 H         1 UNK         0.3091 
    117 H117      -48.3107  -27.4451   17.4679 H         1 UNK         0.0702 
    118 H118      -49.9583  -28.8985   16.3059 H         1 UNK         0.0785 
    119 H119      -50.0079  -27.7983   14.9377 H         1 UNK         0.0785 
    120 H120      -48.5291  -28.6843   15.3070 H         1 UNK         0.0785 
    121 H121      -48.1023  -26.1923   14.8854 H         1 UNK         0.2998 
    122 H122      -46.3563  -23.2832   16.0100 H         1 UNK         0.0697 
    123 H123      -45.4370  -25.6679   14.3171 H         1 UNK         0.0825 
    124 H124      -44.6077  -25.0554   15.7418 H         1 UNK         0.0825 
    125 H125      -44.7363  -24.0513   14.3068 H         1 UNK         0.0825 
    126 H126      -47.1302  -24.0593   13.3996 H         1 UNK         0.3029 
    127 H127      -50.4670  -22.6627   13.5068 H         1 UNK         0.0897 
    128 H128      -49.5294  -21.5913   11.4725 H         1 UNK         0.0792 
    129 H129      -47.8926  -22.0048   11.9752 H         1 UNK         0.0792 
    130 H130      -48.8419  -20.8626   12.9160 H         1 UNK         0.0792 
    131 H131      -49.1560  -24.1136   11.4492 H         1 UNK         0.3086 
    132 H132      -50.1075  -27.3932   12.4802 H         1 UNK         0.0583 
    133 H133      -51.2517  -25.6137   10.2736 H         1 UNK         0.1020 
    134 H134      -50.8052  -27.2684    9.9651 H         1 UNK         0.1020 
    135 H135      -51.4768  -29.2069   11.9205 H         1 UNK         0.0694 
    136 H136      -53.2013  -29.4423   12.0338 H         1 UNK         0.0694 
    137 H137      -48.6166  -26.4295   10.2548 H         1 UNK         0.2989 
    138 H138      -45.4279  -26.7497   11.8261 H         1 UNK         0.1055 
    139 H139      -46.1792  -28.9930   10.9726 H         1 UNK         0.0806 
    140 H140      -45.1073  -28.1781    9.8512 H         1 UNK         0.0806 
    141 H141      -46.8465  -28.2257    9.5403 H         1 UNK         0.0806 
    142 H142      -46.2368  -25.8356    9.2214 H         1 UNK         0.3061 
    143 H143      -46.2897  -22.3551   10.0754 H         1 UNK         0.0734 
    144 H144      -44.5518  -22.2884    8.3302 H         1 UNK         0.0832 
    145 H145      -43.8904  -23.0230    9.7792 H         1 UNK         0.0832 
    146 H146      -44.3391  -24.0376    8.4155 H         1 UNK         0.0832 
    147 H147      -46.6516  -23.3280    7.5441 H         1 UNK         0.3156 
    148 H148      -49.9275  -22.8232    7.4802 H         1 UNK         0.0589 
    149 H149      -47.6739  -24.1218    5.8315 H         1 UNK         0.0808 
    150 H150      -49.0920  -23.3137    5.1827 H         1 UNK         0.0808 
    151 H151      -47.9010  -22.3852    6.0669 H         1 UNK         0.0808 
    152 H152      -49.3872  -25.6864    7.6909 H         1 UNK         0.3098 
    153 H153      -51.7636  -26.8695    7.7939 H         1 UNK         0.0720 
    154 H154      -53.1292  -27.8709    5.9486 H         1 UNK         0.0791 
    155 H155      -52.6827  -26.5366    4.8894 H         1 UNK         0.0791 
    156 H156      -53.6441  -26.2380    6.3323 H         1 UNK         0.0791 
    157 H157      -50.6694  -27.9089    5.3407 H         1 UNK         0.3028 
@<TRIPOS>BOND
     1    1    2 1    
     2    1   82 1    
     3    1   83 1    
     4    1   84 1    
     5    2    3 2    
     6    2    4 am   BACKBONE|DICT|INTERRES
     7    4    5 1    
     8    4   85 1    
     9    5    6 1    
    10    5   80 1    
    11    5   86 1    
    12    6    7 1    
    13    6   87 1    
    14    6   88 1    
    15    7    8 1    
    16    8    9 1    
    17    8   89 1    
    18    8   90 1    
    19    9   10 ar   
    20    9   14 ar   
    21   10   11 ar   
    22   10   91 1    
    23   11   12 ar   
    24   11   58 1    
    25   12   13 ar   
    26   12   92 1    
    27   13   14 ar   
    28   13   15 1    
    29   14   93 1    
    30   15   16 1    
    31   15   94 1    
    32   15   95 1    
    33   16   17 1    
    34   17   18 1    
    35   17   96 1    
    36   17   97 1    
    37   18   19 1    
    38   18   22 1    
    39   18   98 1    
    40   19   20 am   BACKBONE|DICT|INTERRES
    41   19   21 2    
    42   20   99 1    
    43   20  100 1    
    44   22   23 am   BACKBONE|DICT|INTERRES
    45   22  101 1    
    46   23   24 2    
    47   23   25 1    
    48   25   26 1    
    49   25   27 1    
    50   25  102 1    
    51   26  103 1    
    52   26  104 1    
    53   26  105 1    
    54   27   28 am   BACKBONE|DICT|INTERRES
    55   27  106 1    
    56   28   29 2    
    57   28   30 1    
    58   30   31 1    
    59   30   32 1    
    60   30  107 1    
    61   31  108 1    
    62   31  109 1    
    63   31  110 1    
    64   32   33 am   BACKBONE|DICT|INTERRES
    65   32  111 1    
    66   33   34 2    
    67   33   35 1    
    68   35   36 1    
    69   35   37 1    
    70   35  112 1    
    71   36  113 1    
    72   36  114 1    
    73   36  115 1    
    74   37   38 am   BACKBONE|DICT|INTERRES
    75   37  116 1    
    76   38   39 2    
    77   38   40 1    
    78   40   41 1    
    79   40   42 1    
    80   40  117 1    
    81   41  118 1    
    82   41  119 1    
    83   41  120 1    
    84   42   43 am   BACKBONE|DICT|INTERRES
    85   42  121 1    
    86   43   44 2    
    87   43   45 1    
    88   45   46 1    
    89   45   47 1    
    90   45  122 1    
    91   46  123 1    
    92   46  124 1    
    93   46  125 1    
    94   47   48 am   BACKBONE|DICT|INTERRES
    95   47  126 1    
    96   48   49 2    
    97   48   50 1    
    98   50   51 1    
    99   50   52 1    
   100   50  127 1    
   101   51  128 1    
   102   51  129 1    
   103   51  130 1    
   104   52   53 am   BACKBONE|DICT|INTERRES
   105   52  131 1    
   106   53   54 2    
   107   53   55 1    
   108   55   56 1    
   109   55   59 1    
   110   55  132 1    
   111   56   57 1    
   112   56  133 1    
   113   56  134 1    
   114   57   58 1    
   115   58  135 1    
   116   58  136 1    
   117   59   60 am   BACKBONE|DICT|INTERRES
   118   59  137 1    
   119   60   61 2    
   120   60   62 1    
   121   62   63 1    
   122   62   64 1    
   123   62  138 1    
   124   63  139 1    
   125   63  140 1    
   126   63  141 1    
   127   64   65 am   BACKBONE|DICT|INTERRES
   128   64  142 1    
   129   65   66 2    
   130   65   67 1    
   131   67   68 1    
   132   67   69 1    
   133   67  143 1    
   134   68  144 1    
   135   68  145 1    
   136   68  146 1    
   137   69   70 am   BACKBONE|DICT|INTERRES
   138   69  147 1    
   139   70   71 2    
   140   70   72 1    
   141   72   73 1    
   142   72   74 1    
   143   72  148 1    
   144   73  149 1    
   145   73  150 1    
   146   73  151 1    
   147   74   75 am   BACKBONE|DICT|INTERRES
   148   74  152 1    
   149   75   76 2    
   150   75   77 1    
   151   77   78 1    
   152   77   79 1    
   153   77  153 1    
   154   78  154 1    
   155   78  155 1    
   156   78  156 1    
   157   79   80 am   BACKBONE|DICT|INTERRES
   158   79  157 1    
   159   80   81 2    
@<TRIPOS>SUBSTRUCTURE
     1 UNK         1 GROUP             0       ****    0 ROOT    
