@<TRIPOS>MOLECULE
3R207
157   159    1
SMALL
USER_CHARGES


@<TRIPOS>ATOM
      1 CA        -48.8041  -32.0144    3.7816 C.3       0 UNK        -0.1975 
      2 C         -48.9941  -30.6334    4.3898 C.2       0 UNK         0.4852 
      3 O         -48.8532  -30.4802    5.6031 O.2       0 UNK        -0.5216 
      4 N         -49.3077  -29.6327    3.5542 N.am      1 UNK        -0.4461 
      5 CA        -49.5668  -28.2169    3.8681 C.3       1 UNK         0.0864 
      6 C6        -50.7728  -27.9726    4.8164 C.3       14 UNK        -0.0898 
      7 S7        -52.3679  -28.5703    4.1582 S.3       14 UNK        -0.2598 
      8 C8        -52.6918  -30.0745    5.1383 C.3       14 UNK         0.0286 
      9 C9        -52.8909  -29.7899    6.6221 C.ar      14 UNK        -0.0844 
     10 C10       -51.8312  -29.9770    7.5134 C.ar      14 UNK        -0.0881 
     11 C11       -51.9934  -29.7273    8.8763 C.ar      14 UNK        -0.0643 
     12 C12       -53.2442  -29.3421    9.3575 C.ar      14 UNK        -0.0930 
     13 C13       -54.3176  -29.1478    8.4834 C.ar      14 UNK        -0.0827 
     14 C14       -54.1322  -29.3674    7.1124 C.ar      14 UNK        -0.1249 
     15 C15       -55.6843  -28.7438    9.0246 C.3       14 UNK         0.0141 
     16 S16       -55.8517  -26.9476    9.2893 S.3       14 UNK        -0.2313 
     17 C17       -54.9967  -26.6513   10.8865 C.3       14 UNK        -0.0915 
     18 CA        -55.7667  -26.8193   12.2493 C.3       13 UNK         0.0968 
     19 C         -57.2820  -27.1853   12.1827 C.2       13 UNK         0.5732 
     20 N         -58.1018  -26.3146   11.6086 N.am      13 UNK        -0.7310 
     21 O         -57.7387  -28.2165   12.6718 O.2       13 UNK        -0.5035 
     22 N         -55.0003  -27.6052   13.2323 N.am      13 UNK        -0.4233 
     23 C         -54.6860  -28.9090   13.1704 C.2       13 UNK         0.4989 
     24 O         -55.0209  -29.6611   12.2583 O.2       13 UNK        -0.4996 
     25 CA        -53.8142  -29.4881   14.3009 C.3       12 UNK         0.0216 
     26 CB        -52.3436  -29.5512   13.8536 C.3       12 UNK        -0.1964 
     27 N         -53.8965  -28.7310   15.5481 N.am      12 UNK        -0.4276 
     28 C         -54.9591  -28.6958   16.3635 C.2       12 UNK         0.5020 
     29 O         -55.9651  -29.3890   16.2112 O.2       12 UNK        -0.5489 
     30 CA        -54.8956  -27.7024   17.5388 C.3       11 UNK         0.0294 
     31 CB        -54.5554  -28.4354   18.8462 C.3       11 UNK        -0.2019 
     32 N         -53.9339  -26.6125   17.3376 N.am      11 UNK        -0.4493 
     33 C         -53.9972  -25.6779   16.3809 C.2       11 UNK         0.4932 
     34 O         -54.8916  -25.6239   15.5366 O.2       11 UNK        -0.5029 
     35 CA        -52.8405  -24.6718   16.3176 C.3       10 UNK         0.0280 
     36 CB        -52.9044  -23.6582   17.4764 C.3       10 UNK        -0.1976 
     37 N         -51.5169  -25.2985   16.2105 N.am      10 UNK        -0.4242 
     38 C         -50.8337  -26.0170   17.1146 C.2       10 UNK         0.5072 
     39 O         -51.2772  -26.3454   18.2160 O.2       10 UNK        -0.5224 
     40 CA        -49.4032  -26.4310   16.7222 C.3       9 UNK         0.0343 
     41 CB        -49.4159  -27.7408   15.9173 C.3       9 UNK        -0.2003 
     42 N         -48.7092  -25.3885   15.9596 N.am      9 UNK        -0.4272 
     43 C         -48.3585  -24.1919   16.4569 C.2       9 UNK         0.4988 
     44 O         -48.4556  -23.8875   17.6464 O.2       9 UNK        -0.5108 
     45 CA        -47.8458  -23.1429   15.4553 C.3       8 UNK         0.0248 
     46 CB        -46.3419  -23.3211   15.1935 C.3       8 UNK        -0.2001 
     47 N         -48.5921  -23.1616   14.1919 N.am      8 UNK        -0.4140 
     48 C         -49.8836  -22.8112   14.0793 C.2       8 UNK         0.5028 
     49 O         -50.5483  -22.3497   15.0063 O.2       8 UNK        -0.5428 
     50 CA        -50.5664  -23.0229   12.7182 C.3       7 UNK         0.0264 
     51 CB        -50.3646  -21.7898   11.8238 C.3       7 UNK        -0.1988 
     52 N         -50.1071  -24.2275   12.0211 N.am      7 UNK        -0.4454 
     53 C         -50.3522  -25.4842   12.4231 C.2       7 UNK         0.5027 
     54 O         -51.0520  -25.7558   13.3991 O.2       7 UNK        -0.5083 
     55 CA        -49.6477  -26.6278   11.6595 C.3       6 UNK         0.0844 
     56 C56       -50.4517  -27.0941   10.4225 C.3       14 UNK        -0.0967 
     57 S57       -49.6309  -28.4996    9.5857 S.3       14 UNK        -0.2604 
     58 C58       -50.8104  -29.8645    9.8195 C.3       14 UNK         0.0134 
     59 N         -48.2633  -26.2817   11.3259 N.am      6 UNK        -0.4116 
     60 C         -47.2924  -26.0894   12.2273 C.2       5 UNK         0.5034 
     61 O         -47.4553  -26.1861   13.4438 O.2       5 UNK        -0.5045 
     62 CA        -45.9208  -25.6763   11.6777 C.3       5 UNK         0.0224 
     63 CB        -45.1372  -26.9016   11.1800 C.3       5 UNK        -0.1978 
     64 N         -46.0477  -24.6933   10.5998 N.am      5 UNK        -0.4737 
     65 C         -46.3851  -23.4110   10.7942 C.2       4 UNK         0.5027 
     66 O         -46.5971  -22.9228   11.9033 O.2       4 UNK        -0.5211 
     67 CA        -46.5498  -22.5346    9.5406 C.3       4 UNK         0.0297 
     68 CB        -45.1865  -22.0080    9.0658 C.3       4 UNK        -0.1993 
     69 N         -47.2231  -23.2262    8.4380 N.am      4 UNK        -0.4486 
     70 C         -48.4838  -23.6765    8.4902 C.2       3 UNK         0.4961 
     71 O         -49.2177  -23.5483    9.4665 O.2       3 UNK        -0.5105 
     72 CA        -49.0139  -24.4362    7.2679 C.3       3 UNK         0.0299 
     73 CB        -49.5914  -23.4590    6.2325 C.3       3 UNK        -0.1972 
     74 N         -48.0477  -25.3223    6.6162 N.am      3 UNK        -0.4305 
     75 C         -47.3229  -26.2868    7.2007 C.2       2 UNK         0.5006 
     76 O         -47.2106  -26.4188    8.4212 O.2       2 UNK        -0.5106 
     77 CA        -46.6555  -27.2942    6.2417 C.3       2 UNK         0.0296 
     78 CB        -45.8217  -28.3519    6.9881 C.3       2 UNK        -0.2002 
     79 N         -47.6689  -27.9757    5.4293 N.am      2 UNK        -0.4032 
     80 C         -48.3339  -27.4497    4.3921 C.2       1 UNK         0.5000 
     81 O         -48.0459  -26.3590    3.8941 O.2       1 UNK        -0.5238 
     82 H82       -47.7939  -32.3734    3.9759 H         1 UNK         0.0889 
     83 H83       -48.9626  -32.0122    2.7033 H         1 UNK         0.0889 
     84 H84       -49.5074  -32.7181    4.2261 H         1 UNK         0.0889 
     85 H85       -49.3807  -29.8496    2.5697 H         1 UNK         0.3028 
     86 H86       -49.8154  -27.7570    2.9099 H         1 UNK         0.0864 
     87 H87       -50.5799  -28.3982    5.7989 H         1 UNK         0.0720 
     88 H88       -50.8997  -26.9018    4.9900 H         1 UNK         0.0720 
     89 H89       -51.8772  -30.7843    4.9917 H         1 UNK         0.0814 
     90 H90       -53.5847  -30.5608    4.7429 H         1 UNK         0.0814 
     91 H91       -50.8661  -30.2981    7.1479 H         1 UNK         0.1469 
     92 H92       -53.3750  -29.1949   10.4174 H         1 UNK         0.1381 
     93 H93       -54.9568  -29.2246    6.4273 H         1 UNK         0.1206 
     94 H94       -55.9039  -29.2765    9.9482 H         1 UNK         0.0813 
     95 H95       -56.4586  -29.0535    8.3213 H         1 UNK         0.0813 
     96 H96       -54.6505  -25.6182   10.8321 H         1 UNK         0.0638 
     97 H97       -54.0701  -27.2184   10.8911 H         1 UNK         0.0638 
     98 H98       -55.7758  -25.8309   12.7116 H         1 UNK         0.0568 
     99 H99       -59.0866  -26.5232   11.5658 H         1 UNK         0.3450 
    100 H100      -57.7478  -25.4704   11.1869 H         1 UNK         0.3450 
    101 H101      -54.7403  -27.0881   14.0637 H         1 UNK         0.2987 
    102 H102      -54.1595  -30.5055   14.4975 H         1 UNK         0.0766 
    103 H103      -51.7077  -29.9804   14.6281 H         1 UNK         0.0798 
    104 H104      -51.9524  -28.5637   13.6036 H         1 UNK         0.0798 
    105 H105      -52.2375  -30.1787   12.9682 H         1 UNK         0.0798 
    106 H106      -53.1157  -28.1324   15.7719 H         1 UNK         0.3198 
    107 H107      -55.8872  -27.2561   17.6394 H         1 UNK         0.0843 
    108 H108      -53.5596  -28.8795   18.8125 H         1 UNK         0.0831 
    109 H109      -55.2659  -29.2405   19.0395 H         1 UNK         0.0831 
    110 H110      -54.5932  -27.7603   19.7014 H         1 UNK         0.0831 
    111 H111      -53.1152  -26.5934   17.9433 H         1 UNK         0.3133 
    112 H112      -52.9650  -24.1092   15.3908 H         1 UNK         0.0566 
    113 H113      -52.1236  -22.9034   17.3794 H         1 UNK         0.0814 
    114 H114      -53.8616  -23.1354   17.4826 H         1 UNK         0.0814 
    115 H115      -52.7889  -24.1344   18.4502 H         1 UNK         0.0814 
    116 H116      -51.0902  -25.2014   15.2936 H         1 UNK         0.3091 
    117 H117      -48.8432  -26.6026   17.6437 H         1 UNK         0.0702 
    118 H118      -48.4029  -28.0759   15.6935 H         1 UNK         0.0785 
    119 H119      -49.9451  -27.6319   14.9709 H         1 UNK         0.0785 
    120 H120      -49.9059  -28.5389   16.4766 H         1 UNK         0.0785 
    121 H121      -48.5032  -25.5884   14.9847 H         1 UNK         0.2998 
    122 H122      -47.9899  -22.1596   15.9082 H         1 UNK         0.0697 
    123 H123      -46.1203  -24.2786   14.7235 H         1 UNK         0.0825 
    124 H124      -45.7774  -23.2787   16.1259 H         1 UNK         0.0825 
    125 H125      -45.9562  -22.5329   14.5469 H         1 UNK         0.0825 
    126 H126      -48.0858  -23.4560   13.3645 H         1 UNK         0.3029 
    127 H127      -51.6371  -23.1347   12.9038 H         1 UNK         0.0897 
    128 H128      -50.9233  -21.8808   10.8922 H         1 UNK         0.0792 
    129 H129      -50.7115  -20.8833   12.3218 H         1 UNK         0.0792 
    130 H130      -49.3135  -21.6434   11.5711 H         1 UNK         0.0792 
    131 H131      -49.5835  -24.0740   11.1598 H         1 UNK         0.3086 
    132 H132      -49.6018  -27.4741   12.3487 H         1 UNK         0.0583 
    133 H133      -51.4650  -27.3788   10.7106 H         1 UNK         0.1020 
    134 H134      -50.5572  -26.2810    9.7022 H         1 UNK         0.1020 
    135 H135      -50.3007  -30.8087    9.6222 H         1 UNK         0.0694 
    136 H136      -51.1313  -29.8988   10.8609 H         1 UNK         0.0694 
    137 H137      -48.0302  -26.2263   10.3396 H         1 UNK         0.2989 
    138 H138      -45.3574  -25.2216   12.4957 H         1 UNK         0.1055 
    139 H139      -45.0012  -27.6273   11.9830 H         1 UNK         0.0806 
    140 H140      -44.1451  -26.6208   10.8263 H         1 UNK         0.0806 
    141 H141      -45.6514  -27.4124   10.3650 H         1 UNK         0.0806 
    142 H142      -45.9952  -25.0463    9.6520 H         1 UNK         0.3061 
    143 H143      -47.1670  -21.6777    9.8195 H         1 UNK         0.0734 
    144 H144      -45.2969  -21.3115    8.2344 H         1 UNK         0.0832 
    145 H145      -44.6758  -21.4732    9.8680 H         1 UNK         0.0832 
    146 H146      -44.5288  -22.8162    8.7436 H         1 UNK         0.0832 
    147 H147      -46.6891  -23.3921    7.5974 H         1 UNK         0.3156 
    148 H148      -49.8293  -25.0726    7.6172 H         1 UNK         0.0589 
    149 H149      -48.8165  -22.8259    5.7983 H         1 UNK         0.0808 
    150 H150      -50.0867  -23.9893    5.4187 H         1 UNK         0.0808 
    151 H151      -50.3339  -22.8014    6.6871 H         1 UNK         0.0808 
    152 H152      -48.0585  -25.3252    5.6007 H         1 UNK         0.3098 
    153 H153      -45.9868  -26.7353    5.5841 H         1 UNK         0.0720 
    154 H154      -45.3316  -29.0337    6.2930 H         1 UNK         0.0791 
    155 H155      -46.4391  -28.9472    7.6627 H         1 UNK         0.0791 
    156 H156      -45.0409  -27.8827    7.5883 H         1 UNK         0.0791 
    157 H157      -47.9985  -28.8791    5.7667 H         1 UNK         0.3028 
@<TRIPOS>BOND
     1    1    2 1    
     2    1   82 1    
     3    1   83 1    
     4    1   84 1    
     5    2    3 2    
     6    2    4 am   BACKBONE|DICT|INTERRES
     7    4    5 1    
     8    4   85 1    
     9    5    6 1    
    10    5   80 1    
    11    5   86 1    
    12    6    7 1    
    13    6   87 1    
    14    6   88 1    
    15    7    8 1    
    16    8    9 1    
    17    8   89 1    
    18    8   90 1    
    19    9   10 ar   
    20    9   14 ar   
    21   10   11 ar   
    22   10   91 1    
    23   11   12 ar   
    24   11   58 1    
    25   12   13 ar   
    26   12   92 1    
    27   13   14 ar   
    28   13   15 1    
    29   14   93 1    
    30   15   16 1    
    31   15   94 1    
    32   15   95 1    
    33   16   17 1    
    34   17   18 1    
    35   17   96 1    
    36   17   97 1    
    37   18   19 1    
    38   18   22 1    
    39   18   98 1    
    40   19   20 am   BACKBONE|DICT|INTERRES
    41   19   21 2    
    42   20   99 1    
    43   20  100 1    
    44   22   23 am   BACKBONE|DICT|INTERRES
    45   22  101 1    
    46   23   24 2    
    47   23   25 1    
    48   25   26 1    
    49   25   27 1    
    50   25  102 1    
    51   26  103 1    
    52   26  104 1    
    53   26  105 1    
    54   27   28 am   BACKBONE|DICT|INTERRES
    55   27  106 1    
    56   28   29 2    
    57   28   30 1    
    58   30   31 1    
    59   30   32 1    
    60   30  107 1    
    61   31  108 1    
    62   31  109 1    
    63   31  110 1    
    64   32   33 am   BACKBONE|DICT|INTERRES
    65   32  111 1    
    66   33   34 2    
    67   33   35 1    
    68   35   36 1    
    69   35   37 1    
    70   35  112 1    
    71   36  113 1    
    72   36  114 1    
    73   36  115 1    
    74   37   38 am   BACKBONE|DICT|INTERRES
    75   37  116 1    
    76   38   39 2    
    77   38   40 1    
    78   40   41 1    
    79   40   42 1    
    80   40  117 1    
    81   41  118 1    
    82   41  119 1    
    83   41  120 1    
    84   42   43 am   BACKBONE|DICT|INTERRES
    85   42  121 1    
    86   43   44 2    
    87   43   45 1    
    88   45   46 1    
    89   45   47 1    
    90   45  122 1    
    91   46  123 1    
    92   46  124 1    
    93   46  125 1    
    94   47   48 am   BACKBONE|DICT|INTERRES
    95   47  126 1    
    96   48   49 2    
    97   48   50 1    
    98   50   51 1    
    99   50   52 1    
   100   50  127 1    
   101   51  128 1    
   102   51  129 1    
   103   51  130 1    
   104   52   53 am   BACKBONE|DICT|INTERRES
   105   52  131 1    
   106   53   54 2    
   107   53   55 1    
   108   55   56 1    
   109   55   59 1    
   110   55  132 1    
   111   56   57 1    
   112   56  133 1    
   113   56  134 1    
   114   57   58 1    
   115   58  135 1    
   116   58  136 1    
   117   59   60 am   BACKBONE|DICT|INTERRES
   118   59  137 1    
   119   60   61 2    
   120   60   62 1    
   121   62   63 1    
   122   62   64 1    
   123   62  138 1    
   124   63  139 1    
   125   63  140 1    
   126   63  141 1    
   127   64   65 am   BACKBONE|DICT|INTERRES
   128   64  142 1    
   129   65   66 2    
   130   65   67 1    
   131   67   68 1    
   132   67   69 1    
   133   67  143 1    
   134   68  144 1    
   135   68  145 1    
   136   68  146 1    
   137   69   70 am   BACKBONE|DICT|INTERRES
   138   69  147 1    
   139   70   71 2    
   140   70   72 1    
   141   72   73 1    
   142   72   74 1    
   143   72  148 1    
   144   73  149 1    
   145   73  150 1    
   146   73  151 1    
   147   74   75 am   BACKBONE|DICT|INTERRES
   148   74  152 1    
   149   75   76 2    
   150   75   77 1    
   151   77   78 1    
   152   77   79 1    
   153   77  153 1    
   154   78  154 1    
   155   78  155 1    
   156   78  156 1    
   157   79   80 am   BACKBONE|DICT|INTERRES
   158   79  157 1    
   159   80   81 2    
@<TRIPOS>SUBSTRUCTURE
     1 UNK         1 GROUP             0       ****    0 ROOT    
