@<TRIPOS>MOLECULE
3R207
157   159    1
SMALL
USER_CHARGES


@<TRIPOS>ATOM
      1 CA        -52.2022  -23.6984    5.9121 C.3       0 UNK        -0.1975 
      2 C         -52.5931  -24.9392    5.1118 C.2       0 UNK         0.4852 
      3 O         -53.5182  -24.8667    4.3043 O.2       0 UNK        -0.5216 
      4 N         -51.9424  -26.0956    5.3027 N.am      1 UNK        -0.4461 
      5 CA        -50.7739  -26.3267    6.1592 C.3       1 UNK         0.0864 
      6 C6        -50.5593  -27.8367    6.4249 C.3       14 UNK        -0.0898 
      7 S7        -51.7476  -28.4800    7.6448 S.3       14 UNK        -0.2598 
      8 C8        -51.2886  -30.2388    7.6257 C.3       14 UNK         0.0286 
      9 C9        -51.9878  -30.9972    8.7415 C.ar      14 UNK        -0.0844 
     10 C10       -51.3358  -31.2180    9.9585 C.ar      14 UNK        -0.0881 
     11 C11       -51.9777  -31.8983   11.0018 C.ar      14 UNK        -0.0643 
     12 C12       -53.2723  -32.3860   10.7945 C.ar      14 UNK        -0.0930 
     13 C13       -53.9301  -32.1839    9.5769 C.ar      14 UNK        -0.0827 
     14 C14       -53.2839  -31.4839    8.5549 C.ar      14 UNK        -0.1249 
     15 C15       -55.3342  -32.7320    9.3631 C.3       14 UNK         0.0141 
     16 S16       -56.5593  -31.9267   10.4422 S.3       14 UNK        -0.2313 
     17 C17       -56.6192  -30.2329    9.7600 C.3       14 UNK        -0.0915 
     18 CA        -55.6554  -29.2392   10.4642 C.3       13 UNK         0.0968 
     19 C         -55.8368  -27.8078    9.8920 C.2       13 UNK         0.5732 
     20 N         -55.1557  -27.4869    8.8005 N.am      13 UNK        -0.7310 
     21 O         -56.6275  -27.0103   10.3934 O.2       13 UNK        -0.5035 
     22 N         -55.7760  -29.3119   11.9270 N.am      13 UNK        -0.4233 
     23 C         -54.9364  -28.7364   12.7921 C.2       13 UNK         0.4989 
     24 O         -54.0136  -27.9892   12.4666 O.2       13 UNK        -0.4996 
     25 CA        -55.1195  -29.1121   14.2677 C.3       12 UNK         0.0216 
     26 CB        -54.8199  -30.6156   14.4733 C.3       12 UNK        -0.1964 
     27 N         -54.2138  -28.2934   15.0748 N.am      12 UNK        -0.4276 
     28 C         -54.1631  -28.2514   16.4118 C.2       12 UNK         0.5020 
     29 O         -54.9492  -28.8480   17.1489 O.2       12 UNK        -0.5489 
     30 CA        -53.0402  -27.4159   17.0409 C.3       11 UNK         0.0294 
     31 CB        -51.7202  -28.2057   17.0512 C.3       11 UNK        -0.2019 
     32 N         -52.8326  -26.1515   16.3395 N.am      11 UNK        -0.4493 
     33 C         -53.4181  -24.9916   16.6612 C.2       11 UNK         0.4932 
     34 O         -54.2554  -24.8731   17.5576 O.2       11 UNK        -0.5029 
     35 CA        -52.9739  -23.7574   15.8496 C.3       10 UNK         0.0280 
     36 CB        -53.3107  -22.4205   16.5431 C.3       10 UNK        -0.1976 
     37 N         -51.5569  -23.8115   15.4686 N.am      10 UNK        -0.4242 
     38 C         -50.4819  -23.8538   16.2739 C.2       10 UNK         0.5072 
     39 O         -50.5360  -23.7613   17.5009 O.2       10 UNK        -0.5224 
     40 CA        -49.1052  -24.0627   15.6071 C.3       9 UNK         0.0343 
     41 CB        -48.5893  -25.4857   15.8791 C.3       9 UNK        -0.2003 
     42 N         -49.1134  -23.8324   14.1601 N.am      9 UNK        -0.4272 
     43 C         -49.2280  -22.6285   13.5816 C.2       9 UNK         0.4988 
     44 O         -49.2240  -21.5648   14.2017 O.2       9 UNK        -0.5108 
     45 CA        -49.4328  -22.6132   12.0594 C.3       8 UNK         0.0248 
     46 CB        -48.0861  -22.5692   11.3255 C.3       8 UNK        -0.2001 
     47 N         -50.2140  -23.7617   11.5921 N.am      8 UNK        -0.4140 
     48 C         -51.5299  -23.9158   11.8019 C.2       8 UNK         0.5028 
     49 O         -52.2321  -23.0912   12.3858 O.2       8 UNK        -0.5428 
     50 CA        -52.1616  -25.2262   11.3087 C.3       7 UNK         0.0264 
     51 CB        -52.4189  -25.1580    9.7957 C.3       7 UNK        -0.1988 
     52 N         -51.3384  -26.3979   11.6071 N.am      7 UNK        -0.4454 
     53 C         -51.0719  -26.8599   12.8387 C.2       7 UNK         0.5027 
     54 O         -51.5021  -26.3534   13.8751 O.2       7 UNK        -0.5083 
     55 CA        -50.1580  -28.0982   12.9317 C.3       6 UNK         0.0844 
     56 C56       -51.0282  -29.3816   12.9018 C.3       14 UNK        -0.0967 
     57 S57       -50.0470  -30.9197   12.8558 S.3       14 UNK        -0.2604 
     58 C58       -51.3029  -32.1502   12.3529 C.3       14 UNK         0.0134 
     59 N         -49.1010  -28.1140   11.9121 N.am      6 UNK        -0.4116 
     60 C         -48.2192  -27.1388   11.6504 C.2       5 UNK         0.5034 
     61 O         -48.1909  -26.0531   12.2377 O.2       5 UNK        -0.5045 
     62 CA        -47.2676  -27.4222   10.4779 C.3       5 UNK         0.0224 
     63 CB        -48.0582  -27.5174    9.1617 C.3       5 UNK        -0.1978 
     64 N         -46.2389  -26.3880   10.3404 N.am      5 UNK        -0.4737 
     65 C         -45.0648  -26.4079   10.9874 C.2       4 UNK         0.5027 
     66 O         -44.7474  -27.3003   11.7755 O.2       4 UNK        -0.5211 
     67 CA        -44.0527  -25.2817   10.6984 C.3       4 UNK         0.0297 
     68 CB        -42.6829  -25.8624   10.3014 C.3       4 UNK        -0.1993 
     69 N         -44.5006  -24.3818    9.6318 N.am      4 UNK        -0.4486 
     70 C         -44.8278  -23.0943    9.7957 C.2       3 UNK         0.4961 
     71 O         -44.7402  -22.4976   10.8691 O.2       3 UNK        -0.5105 
     72 CA        -45.3373  -22.3241    8.5591 C.3       3 UNK         0.0299 
     73 CB        -44.2367  -21.3920    8.0254 C.3       3 UNK        -0.1972 
     74 N         -45.8436  -23.1457    7.4494 N.am      3 UNK        -0.4305 
     75 C         -46.8659  -24.0075    7.5203 C.2       2 UNK         0.5006 
     76 O         -47.4417  -24.3064    8.5707 O.2       2 UNK        -0.5106 
     77 CA        -47.2990  -24.6767    6.2096 C.3       2 UNK         0.0296 
     78 CB        -46.2709  -25.7308    5.7552 C.3       2 UNK        -0.2002 
     79 N         -48.5891  -25.3054    6.4624 N.am      2 UNK        -0.4032 
     80 C         -49.4971  -25.6979    5.5650 C.2       1 UNK         0.5000 
     81 O         -49.3558  -25.5988    4.3435 O.2       1 UNK        -0.5238 
     82 H82       -52.9083  -22.8894    5.7253 H         1 UNK         0.0889 
     83 H83       -51.2131  -23.3434    5.6253 H         1 UNK         0.0889 
     84 H84       -52.2131  -23.8975    6.9826 H         1 UNK         0.0889 
     85 H85       -52.2257  -26.8934    4.7530 H         1 UNK         0.3028 
     86 H86       -50.9572  -25.8418    7.1183 H         1 UNK         0.0864 
     87 H87       -50.6394  -28.4104    5.4994 H         1 UNK         0.0720 
     88 H88       -49.5596  -28.0354    6.8142 H         1 UNK         0.0720 
     89 H89       -50.2064  -30.3361    7.7263 H         1 UNK         0.0814 
     90 H90       -51.5483  -30.6714    6.6582 H         1 UNK         0.0814 
     91 H91       -50.3283  -30.8514   10.0905 H         1 UNK         0.1469 
     92 H92       -53.7767  -32.9246   11.5854 H         1 UNK         0.1381 
     93 H93       -53.7872  -31.3165    7.6123 H         1 UNK         0.1206 
     94 H94       -55.3316  -33.8023    9.5736 H         1 UNK         0.0813 
     95 H95       -55.6446  -32.6275    8.3223 H         1 UNK         0.0813 
     96 H96       -57.6500  -29.8854    9.8511 H         1 UNK         0.0638 
     97 H97       -56.4086  -30.2742    8.6897 H         1 UNK         0.0638 
     98 H98       -54.6332  -29.5436   10.2335 H         1 UNK         0.0568 
     99 H99       -54.5015  -28.1314    8.3841 H         1 UNK         0.3450 
    100 H100      -55.2839  -26.5725    8.3989 H         1 UNK         0.3450 
    101 H101      -56.5114  -29.9095   12.2724 H         1 UNK         0.2987 
    102 H102      -56.1486  -28.8912   14.5572 H         1 UNK         0.0766 
    103 H103      -54.9923  -30.9272   15.5031 H         1 UNK         0.0798 
    104 H104      -53.7859  -30.8536   14.2235 H         1 UNK         0.0798 
    105 H105      -55.4571  -31.2428   13.8488 H         1 UNK         0.0798 
    106 H106      -53.5765  -27.7281   14.5239 H         1 UNK         0.3198 
    107 H107      -53.3160  -27.2143   18.0786 H         1 UNK         0.0843 
    108 H108      -51.3668  -28.4237   16.0432 H         1 UNK         0.0831 
    109 H109      -51.8393  -29.1583   17.5693 H         1 UNK         0.0831 
    110 H110      -50.9346  -27.6527   17.5667 H         1 UNK         0.0831 
    111 H111      -52.2051  -26.1633   15.5365 H         1 UNK         0.3133 
    112 H112      -53.5357  -23.7940   14.9152 H         1 UNK         0.0566 
    113 H113      -52.9915  -21.5708   15.9397 H         1 UNK         0.0814 
    114 H114      -54.3855  -22.3208   16.6987 H         1 UNK         0.0814 
    115 H115      -52.8325  -22.3382   17.5196 H         1 UNK         0.0814 
    116 H116      -51.3921  -23.9193   14.4763 H         1 UNK         0.3091 
    117 H117      -48.4098  -23.3538   16.0613 H         1 UNK         0.0702 
    118 H118      -47.6084  -25.6468   15.4311 H         1 UNK         0.0785 
    119 H119      -49.2671  -26.2422   15.4844 H         1 UNK         0.0785 
    120 H120      -48.4910  -25.6666   16.9504 H         1 UNK         0.0785 
    121 H121      -49.0521  -24.6504   13.5628 H         1 UNK         0.2998 
    122 H122      -49.9822  -21.7026   11.8107 H         1 UNK         0.0697 
    123 H123      -47.5136  -23.4866   11.4683 H         1 UNK         0.0825 
    124 H124      -47.4704  -21.7422   11.6818 H         1 UNK         0.0825 
    125 H125      -48.2291  -22.4248   10.2552 H         1 UNK         0.0825 
    126 H126      -49.6960  -24.5127   11.1575 H         1 UNK         0.3029 
    127 H127      -53.1198  -25.3547   11.8177 H         1 UNK         0.0897 
    128 H128      -52.8608  -26.0825    9.4265 H         1 UNK         0.0792 
    129 H129      -53.1098  -24.3489    9.5551 H         1 UNK         0.0792 
    130 H130      -51.4988  -24.9792    9.2400 H         1 UNK         0.0792 
    131 H131      -50.9711  -26.9077   10.8182 H         1 UNK         0.3086 
    132 H132      -49.6527  -28.0556   13.8981 H         1 UNK         0.0583 
    133 H133      -51.6792  -29.4203   13.7766 H         1 UNK         0.1020 
    134 H134      -51.6939  -29.3656   12.0367 H         1 UNK         0.1020 
    135 H135      -50.8267  -33.1307   12.3187 H         1 UNK         0.0694 
    136 H136      -52.0561  -32.2031   13.1400 H         1 UNK         0.0694 
    137 H137      -49.0286  -28.9778   11.3954 H         1 UNK         0.2989 
    138 H138      -46.7836  -28.3850   10.6593 H         1 UNK         0.1055 
    139 H139      -48.7109  -28.3911    9.1541 H         1 UNK         0.0806 
    140 H140      -47.3932  -27.6121    8.3035 H         1 UNK         0.0806 
    141 H141      -48.6889  -26.6422    9.0093 H         1 UNK         0.0806 
    142 H142      -46.4888  -25.5747    9.7870 H         1 UNK         0.3061 
    143 H143      -43.9275  -24.7332   11.6342 H         1 UNK         0.0734 
    144 H144      -41.9539  -25.0713   10.1249 H         1 UNK         0.0832 
    145 H145      -42.2802  -26.4981   11.0911 H         1 UNK         0.0832 
    146 H146      -42.7477  -26.4677    9.3965 H         1 UNK         0.0832 
    147 H147      -44.6021  -24.7861    8.7121 H         1 UNK         0.3156 
    148 H148      -46.1678  -21.7023    8.8992 H         1 UNK         0.0589 
    149 H149      -43.3871  -21.9537    7.6350 H         1 UNK         0.0808 
    150 H150      -44.6107  -20.7482    7.2290 H         1 UNK         0.0808 
    151 H151      -43.8597  -20.7387    8.8139 H         1 UNK         0.0808 
    152 H152      -45.4174  -22.9833    6.5478 H         1 UNK         0.3098 
    153 H153      -47.4167  -23.9082    5.4430 H         1 UNK         0.0720 
    154 H154      -46.5905  -26.2290    4.8397 H         1 UNK         0.0791 
    155 H155      -46.1159  -26.4983    6.5141 H         1 UNK         0.0791 
    156 H156      -45.3020  -25.2753    5.5480 H         1 UNK         0.0791 
    157 H157      -48.7941  -25.3594    7.4530 H         1 UNK         0.3028 
@<TRIPOS>BOND
     1    1    2 1    
     2    1   82 1    
     3    1   83 1    
     4    1   84 1    
     5    2    3 2    
     6    2    4 am   BACKBONE|DICT|INTERRES
     7    4    5 1    
     8    4   85 1    
     9    5    6 1    
    10    5   80 1    
    11    5   86 1    
    12    6    7 1    
    13    6   87 1    
    14    6   88 1    
    15    7    8 1    
    16    8    9 1    
    17    8   89 1    
    18    8   90 1    
    19    9   10 ar   
    20    9   14 ar   
    21   10   11 ar   
    22   10   91 1    
    23   11   12 ar   
    24   11   58 1    
    25   12   13 ar   
    26   12   92 1    
    27   13   14 ar   
    28   13   15 1    
    29   14   93 1    
    30   15   16 1    
    31   15   94 1    
    32   15   95 1    
    33   16   17 1    
    34   17   18 1    
    35   17   96 1    
    36   17   97 1    
    37   18   19 1    
    38   18   22 1    
    39   18   98 1    
    40   19   20 am   BACKBONE|DICT|INTERRES
    41   19   21 2    
    42   20   99 1    
    43   20  100 1    
    44   22   23 am   BACKBONE|DICT|INTERRES
    45   22  101 1    
    46   23   24 2    
    47   23   25 1    
    48   25   26 1    
    49   25   27 1    
    50   25  102 1    
    51   26  103 1    
    52   26  104 1    
    53   26  105 1    
    54   27   28 am   BACKBONE|DICT|INTERRES
    55   27  106 1    
    56   28   29 2    
    57   28   30 1    
    58   30   31 1    
    59   30   32 1    
    60   30  107 1    
    61   31  108 1    
    62   31  109 1    
    63   31  110 1    
    64   32   33 am   BACKBONE|DICT|INTERRES
    65   32  111 1    
    66   33   34 2    
    67   33   35 1    
    68   35   36 1    
    69   35   37 1    
    70   35  112 1    
    71   36  113 1    
    72   36  114 1    
    73   36  115 1    
    74   37   38 am   BACKBONE|DICT|INTERRES
    75   37  116 1    
    76   38   39 2    
    77   38   40 1    
    78   40   41 1    
    79   40   42 1    
    80   40  117 1    
    81   41  118 1    
    82   41  119 1    
    83   41  120 1    
    84   42   43 am   BACKBONE|DICT|INTERRES
    85   42  121 1    
    86   43   44 2    
    87   43   45 1    
    88   45   46 1    
    89   45   47 1    
    90   45  122 1    
    91   46  123 1    
    92   46  124 1    
    93   46  125 1    
    94   47   48 am   BACKBONE|DICT|INTERRES
    95   47  126 1    
    96   48   49 2    
    97   48   50 1    
    98   50   51 1    
    99   50   52 1    
   100   50  127 1    
   101   51  128 1    
   102   51  129 1    
   103   51  130 1    
   104   52   53 am   BACKBONE|DICT|INTERRES
   105   52  131 1    
   106   53   54 2    
   107   53   55 1    
   108   55   56 1    
   109   55   59 1    
   110   55  132 1    
   111   56   57 1    
   112   56  133 1    
   113   56  134 1    
   114   57   58 1    
   115   58  135 1    
   116   58  136 1    
   117   59   60 am   BACKBONE|DICT|INTERRES
   118   59  137 1    
   119   60   61 2    
   120   60   62 1    
   121   62   63 1    
   122   62   64 1    
   123   62  138 1    
   124   63  139 1    
   125   63  140 1    
   126   63  141 1    
   127   64   65 am   BACKBONE|DICT|INTERRES
   128   64  142 1    
   129   65   66 2    
   130   65   67 1    
   131   67   68 1    
   132   67   69 1    
   133   67  143 1    
   134   68  144 1    
   135   68  145 1    
   136   68  146 1    
   137   69   70 am   BACKBONE|DICT|INTERRES
   138   69  147 1    
   139   70   71 2    
   140   70   72 1    
   141   72   73 1    
   142   72   74 1    
   143   72  148 1    
   144   73  149 1    
   145   73  150 1    
   146   73  151 1    
   147   74   75 am   BACKBONE|DICT|INTERRES
   148   74  152 1    
   149   75   76 2    
   150   75   77 1    
   151   77   78 1    
   152   77   79 1    
   153   77  153 1    
   154   78  154 1    
   155   78  155 1    
   156   78  156 1    
   157   79   80 am   BACKBONE|DICT|INTERRES
   158   79  157 1    
   159   80   81 2    
@<TRIPOS>SUBSTRUCTURE
     1 UNK         1 GROUP             0       ****    0 ROOT    
