@<TRIPOS>MOLECULE
3R226
127   129    1
SMALL
USER_CHARGES


@<TRIPOS>ATOM
      1 CA        -22.0855    9.3243   61.9089 C.3       0 UNK        -0.1989 
      2 C         -22.4670    9.3621   63.3803 C.2       0 UNK         0.4852 
      3 O         -23.3815   10.0952   63.7540 O.2       0 UNK        -0.5352 
      4 N         -21.7894    8.5643   64.2182 N.am      1 UNK        -0.4459 
      5 CA        -21.9951    8.4868   65.6717 C.3       1 UNK         0.0717 
      6 C6        -20.9087    7.6023   66.3363 C.3       11 UNK        -0.0963 
      7 S7        -20.7161    7.9349   68.1157 S.3       11 UNK        -0.2356 
      8 C8        -19.4395    9.2284   68.1011 C.3       11 UNK         0.0199 
      9 C9        -19.4448    9.9748   69.4232 C.ar      11 UNK        -0.0822 
     10 C10       -18.6646    9.5265   70.4934 C.ar      11 UNK        -0.0923 
     11 C11       -18.7163   10.1829   71.7263 C.ar      11 UNK        -0.0833 
     12 C12       -19.5674   11.2804   71.8877 C.ar      11 UNK        -0.0784 
     13 C13       -20.3537   11.7366   70.8251 C.ar      11 UNK        -0.0776 
     14 C14       -20.2638   11.0963   69.5857 C.ar      11 UNK        -0.0774 
     15 C15       -21.3088   12.9089   71.0345 C.3       11 UNK         0.0261 
     16 S16       -23.0339   12.5567   70.5383 S.3       11 UNK        -0.2530 
     17 C17       -23.3623   10.9321   71.3078 C.3       11 UNK        -0.0904 
     18 CA        -23.5267    9.8385   70.2165 C.3       6 UNK         0.1050 
     19 N         -24.7392    9.9830   69.4076 N.am      6 UNK        -0.4648 
     20 C         -26.0117    9.8695   69.8118 C.2       5 UNK         0.4985 
     21 O         -26.3449    9.6558   70.9779 O.2       5 UNK        -0.4884 
     22 CA        -27.0910    9.9472   68.7123 C.3       5 UNK         0.0409 
     23 CB        -28.3993   10.6003   69.2046 C.3       5 UNK        -0.1979 
     24 N         -26.6108   10.5625   67.4674 N.am      5 UNK        -0.4291 
     25 C         -26.2340   11.8368   67.2690 C.2       4 UNK         0.5023 
     26 O         -26.3344   12.7248   68.1155 O.2       4 UNK        -0.5047 
     27 CA        -25.5927   12.1798   65.9096 C.3       4 UNK         0.0288 
     28 CB        -24.0840   12.4237   66.0878 C.3       4 UNK        -0.2012 
     29 N         -25.7777   11.1450   64.8891 N.am      4 UNK        -0.4326 
     30 C         -26.9359   10.8564   64.2802 C.2       3 UNK         0.4958 
     31 O         -27.9788   11.4881   64.4505 O.2       3 UNK        -0.4896 
     32 CA        -26.9368    9.6237   63.3604 C.3       3 UNK         0.0404 
     33 CB        -26.4537    9.9946   61.9490 C.3       3 UNK        -0.1931 
     34 N         -26.1217    8.5246   63.8897 N.am      3 UNK        -0.4278 
     35 C         -26.4194    7.8116   64.9869 C.2       2 UNK         0.5055 
     36 O         -27.4231    7.9989   65.6736 O.2       2 UNK        -0.5114 
     37 CA        -25.4172    6.7248   65.4088 C.3       2 UNK         0.0155 
     38 CB        -25.6454    5.4295   64.6135 C.3       2 UNK        -0.2004 
     39 N         -24.0262    7.1567   65.2606 N.am      2 UNK        -0.3987 
     40 C         -23.4254    8.0475   66.0624 C.2       1 UNK         0.5040 
     41 O         -23.9641    8.5372   67.0583 O.2       1 UNK        -0.5402 
     42 C         -23.3898    8.3964   70.7350 C.2       6 UNK         0.5028 
     43 O         -23.0566    8.1779   71.9015 O.2       6 UNK        -0.5338 
     44 N         -23.6816    7.4327   69.8457 N.am      7 UNK        -0.4387 
     45 CA        -23.5435    5.9836   70.0343 C.3       7 UNK         0.0207 
     46 CB        -24.0034    5.2640   68.7571 C.3       7 UNK        -0.1953 
     47 C         -24.2619    5.3984   71.2640 C.2       7 UNK         0.5041 
     48 O         -23.8618    4.3333   71.7335 O.2       7 UNK        -0.5277 
     49 N         -25.2666    6.1115   71.7930 N.am      8 UNK        -0.4416 
     50 CA        -25.9312    5.8147   73.0651 C.3       8 UNK         0.0315 
     51 CB        -27.1012    6.7924   73.2605 C.3       8 UNK        -0.1985 
     52 C         -24.9834    5.8580   74.2822 C.2       8 UNK         0.4986 
     53 O         -25.2410    5.1564   75.2615 O.2       8 UNK        -0.5356 
     54 N         -23.9116    6.6578   74.1943 N.am      9 UNK        -0.4252 
     55 CA        -22.8277    6.7298   75.1742 C.3       9 UNK         0.0253 
     56 CB        -22.7040    8.1728   75.6933 C.3       9 UNK        -0.1925 
     57 C         -21.5005    6.2653   74.5550 C.2       9 UNK         0.4998 
     58 O         -20.7898    5.4768   75.1793 O.2       9 UNK        -0.5191 
     59 N         -21.1961    6.7656   73.3498 N.am      10 UNK        -0.4154 
     60 CA        -19.9518    6.5631   72.5886 C.3       10 UNK         0.0675 
     61 C         -19.7775    5.1419   71.9765 C.2       10 UNK         0.5703 
     62 N         -20.7960    4.2919   71.9492 N.am      10 UNK        -0.7384 
     63 O         -18.7016    4.8072   71.4870 O.2       10 UNK        -0.4997 
     64 C64       -18.6726    7.0362   73.3432 C.3       11 UNK        -0.0906 
     65 S65       -18.7974    8.7091   74.0692 S.3       11 UNK        -0.2515 
     66 C66       -17.8520    9.7209   72.8892 C.3       11 UNK         0.0267 
     67 H67       -21.2689    8.6289   61.7159 H         1 UNK         0.0887 
     68 H68       -22.9415    9.0200   61.3072 H         1 UNK         0.0887 
     69 H69       -21.7731   10.3149   61.5796 H         1 UNK         0.0887 
     70 H70       -21.0508    7.9829   63.8467 H         1 UNK         0.3052 
     71 H71       -21.8751    9.5069   66.0433 H         1 UNK         0.0786 
     72 H72       -21.1261    6.5413   66.1987 H         1 UNK         0.0847 
     73 H73       -19.9396    7.7670   65.8620 H         1 UNK         0.0847 
     74 H74       -19.6238    9.9234   67.2804 H         1 UNK         0.0709 
     75 H75       -18.4634    8.7771   67.9164 H         1 UNK         0.0709 
     76 H76       -18.0275    8.6614   70.3694 H         1 UNK         0.1300 
     77 H77       -19.6210   11.7731   72.8493 H         1 UNK         0.1529 
     78 H78       -20.8697   11.4443   68.7599 H         1 UNK         0.1542 
     79 H79       -21.3141   13.2166   72.0813 H         1 UNK         0.0706 
     80 H80       -20.9473   13.7661   70.4652 H         1 UNK         0.0706 
     81 H81       -22.5471   10.6918   71.9917 H         1 UNK         0.0758 
     82 H82       -24.2549   11.0054   71.9297 H         1 UNK         0.0758 
     83 H83       -22.7014    9.9429   69.5136 H         1 UNK         0.0838 
     84 H84       -24.5784   10.0376   68.4090 H         1 UNK         0.3163 
     85 H85       -27.3224    8.9129   68.4540 H         1 UNK         0.0565 
     86 H86       -29.1425   10.6478   68.4086 H         1 UNK         0.0798 
     87 H87       -28.2354   11.6127   69.5741 H         1 UNK         0.0798 
     88 H88       -28.8377   10.0266   70.0220 H         1 UNK         0.0798 
     89 H89       -26.4955    9.9199   66.6945 H         1 UNK         0.2955 
     90 H90       -26.0551   13.1022   65.5522 H         1 UNK         0.0819 
     91 H91       -23.6199   12.7342   65.1513 H         1 UNK         0.0746 
     92 H92       -23.8948   13.2099   66.8203 H         1 UNK         0.0746 
     93 H93       -23.5698   11.5253   66.4323 H         1 UNK         0.0746 
     94 H94       -24.9461   10.6247   64.6138 H         1 UNK         0.2957 
     95 H95       -27.9665    9.2683   63.2817 H         1 UNK         0.0474 
     96 H96       -27.0710   10.7867   61.5229 H         1 UNK         0.0804 
     97 H97       -26.5110    9.1418   61.2725 H         1 UNK         0.0804 
     98 H98       -25.4236   10.3526   61.9524 H         1 UNK         0.0804 
     99 H99       -25.2531    8.3385   63.4113 H         1 UNK         0.2961 
    100 H100      -25.5984    6.5093   66.4634 H         1 UNK         0.0863 
    101 H101      -26.6732    5.0806   64.7240 H         1 UNK         0.0753 
    102 H102      -24.9943    4.6293   64.9664 H         1 UNK         0.0753 
    103 H103      -25.4608    5.5679   63.5474 H         1 UNK         0.0753 
    104 H104      -23.5109    6.7980   64.4698 H         1 UNK         0.3132 
    105 H105      -23.9211    7.7396   68.9065 H         1 UNK         0.3199 
    106 H106      -22.4779    5.7884   70.1661 H         1 UNK         0.0770 
    107 H107      -23.4231    5.5805   67.8905 H         1 UNK         0.0800 
    108 H108      -23.8761    4.1844   68.8492 H         1 UNK         0.0800 
    109 H109      -25.0573    5.4506   68.5493 H         1 UNK         0.0800 
    110 H110      -25.5138    6.9831   71.3456 H         1 UNK         0.3207 
    111 H111      -26.3345    4.8021   72.9995 H         1 UNK         0.0712 
    112 H112      -27.8274    6.7119   72.4514 H         1 UNK         0.0853 
    113 H113      -26.7597    7.8279   73.3026 H         1 UNK         0.0853 
    114 H114      -27.6313    6.5857   74.1914 H         1 UNK         0.0853 
    115 H115      -23.7804    7.1947   73.3401 H         1 UNK         0.3099 
    116 H116      -23.0372    6.0801   76.0266 H         1 UNK         0.0687 
    117 H117      -21.8867    8.2609   76.4105 H         1 UNK         0.0806 
    118 H118      -23.6162    8.4893   76.1992 H         1 UNK         0.0806 
    119 H119      -22.5071    8.8798   74.8859 H         1 UNK         0.0806 
    120 H120      -21.8630    7.3890   72.8976 H         1 UNK         0.2992 
    121 H121      -20.0617    7.2133   71.7202 H         1 UNK         0.0597 
    122 H122      -20.6583    3.3814   71.5410 H         1 UNK         0.3446 
    123 H123      -21.7034    4.5414   72.3151 H         1 UNK         0.3446 
    124 H124      -17.8084    7.0046   72.6779 H         1 UNK         0.0808 
    125 H125      -18.4407    6.3442   74.1544 H         1 UNK         0.0808 
    126 H126      -17.4650   10.5942   73.4164 H         1 UNK         0.0672 
    127 H127      -16.9766    9.1748   72.5348 H         1 UNK         0.0672 
@<TRIPOS>BOND
     1    1    2 1    
     2    1   67 1    
     3    1   68 1    
     4    1   69 1    
     5    2    3 2    
     6    2    4 am   BACKBONE|DICT|INTERRES
     7    4    5 1    
     8    4   70 1    
     9    5    6 1    
    10    5   40 1    
    11    5   71 1    
    12    6    7 1    
    13    6   72 1    
    14    6   73 1    
    15    7    8 1    
    16    8    9 1    
    17    8   74 1    
    18    8   75 1    
    19    9   10 ar   
    20    9   14 ar   
    21   10   11 ar   
    22   10   76 1    
    23   11   12 ar   
    24   11   66 1    
    25   12   13 ar   
    26   12   77 1    
    27   13   14 ar   
    28   13   15 1    
    29   14   78 1    
    30   15   16 1    
    31   15   79 1    
    32   15   80 1    
    33   16   17 1    
    34   17   18 1    
    35   17   81 1    
    36   17   82 1    
    37   18   19 1    
    38   18   42 1    
    39   18   83 1    
    40   19   20 am   BACKBONE|DICT|INTERRES
    41   19   84 1    
    42   20   21 2    
    43   20   22 1    
    44   22   23 1    
    45   22   24 1    
    46   22   85 1    
    47   23   86 1    
    48   23   87 1    
    49   23   88 1    
    50   24   25 am   BACKBONE|DICT|INTERRES
    51   24   89 1    
    52   25   26 2    
    53   25   27 1    
    54   27   28 1    
    55   27   29 1    
    56   27   90 1    
    57   28   91 1    
    58   28   92 1    
    59   28   93 1    
    60   29   30 am   BACKBONE|DICT|INTERRES
    61   29   94 1    
    62   30   31 2    
    63   30   32 1    
    64   32   33 1    
    65   32   34 1    
    66   32   95 1    
    67   33   96 1    
    68   33   97 1    
    69   33   98 1    
    70   34   35 am   BACKBONE|DICT|INTERRES
    71   34   99 1    
    72   35   36 2    
    73   35   37 1    
    74   37   38 1    
    75   37   39 1    
    76   37  100 1    
    77   38  101 1    
    78   38  102 1    
    79   38  103 1    
    80   39   40 am   BACKBONE|DICT|INTERRES
    81   39  104 1    
    82   40   41 2    
    83   42   43 2    
    84   42   44 am   BACKBONE|DICT|INTERRES
    85   44   45 1    
    86   44  105 1    
    87   45   46 1    
    88   45   47 1    
    89   45  106 1    
    90   46  107 1    
    91   46  108 1    
    92   46  109 1    
    93   47   48 2    
    94   47   49 am   BACKBONE|DICT|INTERRES
    95   49   50 1    
    96   49  110 1    
    97   50   51 1    
    98   50   52 1    
    99   50  111 1    
   100   51  112 1    
   101   51  113 1    
   102   51  114 1    
   103   52   53 2    
   104   52   54 am   BACKBONE|DICT|INTERRES
   105   54   55 1    
   106   54  115 1    
   107   55   56 1    
   108   55   57 1    
   109   55  116 1    
   110   56  117 1    
   111   56  118 1    
   112   56  119 1    
   113   57   58 2    
   114   57   59 am   BACKBONE|DICT|INTERRES
   115   59   60 1    
   116   59  120 1    
   117   60   61 1    
   118   60   64 1    
   119   60  121 1    
   120   61   62 am   BACKBONE|DICT|INTERRES
   121   61   63 2    
   122   62  122 1    
   123   62  123 1    
   124   64   65 1    
   125   64  124 1    
   126   64  125 1    
   127   65   66 1    
   128   66  126 1    
   129   66  127 1    
@<TRIPOS>SUBSTRUCTURE
     1 UNK         1 GROUP             0       ****    0 ROOT    
