@<TRIPOS>MOLECULE
3R226
127   129    1
SMALL
USER_CHARGES


@<TRIPOS>ATOM
      1 CA        -22.4978   10.0486   61.7740 C.3       0 UNK        -0.1989 
      2 C         -22.8675   10.2898   63.2288 C.2       0 UNK         0.4852 
      3 O         -23.9268    9.8470   63.6699 O.2       0 UNK        -0.5352 
      4 N         -21.9942   10.9676   63.9856 N.am      1 UNK        -0.4459 
      5 CA        -22.1624   11.3318   65.4016 C.3       1 UNK         0.0717 
      6 C6        -20.9484   12.1407   65.9290 C.3       11 UNK        -0.0963 
      7 S7        -19.3414   11.3038   65.6592 S.3       11 UNK        -0.2356 
      8 C8        -18.4313   11.6751   67.1913 C.3       11 UNK         0.0199 
      9 C9        -19.0689   11.0466   68.4225 C.ar      11 UNK        -0.0822 
     10 C10       -19.0892    9.6564   68.5794 C.ar      11 UNK        -0.0923 
     11 C11       -19.6664    9.0774   69.7143 C.ar      11 UNK        -0.0833 
     12 C12       -20.2079    9.9062   70.7020 C.ar      11 UNK        -0.0784 
     13 C13       -20.1908   11.2969   70.5598 C.ar      11 UNK        -0.0776 
     14 C14       -19.6225   11.8606   69.4152 C.ar      11 UNK        -0.0774 
     15 C15       -20.7722   12.1938   71.6444 C.3       11 UNK         0.0261 
     16 S16       -22.5378   12.5472   71.3655 S.3       11 UNK        -0.2530 
     17 C17       -23.2845   10.9307   71.7547 C.3       11 UNK        -0.0904 
     18 CA        -23.7387   10.1800   70.4677 C.3       6 UNK         0.1050 
     19 N         -24.8859   10.8149   69.8090 N.am      6 UNK        -0.4648 
     20 C         -26.1069   10.9916   70.3358 C.2       5 UNK         0.4985 
     21 O         -26.4313   10.6151   71.4629 O.2       5 UNK        -0.4884 
     22 CA        -27.1674   11.6608   69.4428 C.3       5 UNK         0.0409 
     23 CB        -27.1740   13.1798   69.6765 C.3       5 UNK        -0.1979 
     24 N         -27.0366   11.3940   68.0048 N.am      5 UNK        -0.4291 
     25 C         -26.9784   10.1836   67.4299 C.2       4 UNK         0.5023 
     26 O         -26.9353    9.1366   68.0776 O.2       4 UNK        -0.5047 
     27 CA        -26.9863   10.1401   65.8865 C.3       4 UNK         0.0288 
     28 CB        -26.5600   11.4692   65.2285 C.3       4 UNK        -0.2012 
     29 N         -26.1200    9.0792   65.3793 N.am      4 UNK        -0.4326 
     30 C         -26.4230    7.7765   65.2949 C.2       3 UNK         0.4958 
     31 O         -27.5325    7.3052   65.5476 O.2       3 UNK        -0.4896 
     32 CA        -25.2912    6.8369   64.8467 C.3       3 UNK         0.0404 
     33 CB        -25.3033    6.6642   63.3190 C.3       3 UNK        -0.1931 
     34 N         -23.9824    7.3417   65.2706 N.am      3 UNK        -0.4278 
     35 C         -23.3873    7.0222   66.4290 C.2       2 UNK         0.5055 
     36 O         -23.8235    6.1780   67.2098 O.2       2 UNK        -0.5114 
     37 CA        -22.0677    7.7309   66.7819 C.3       2 UNK         0.0155 
     38 CB        -20.8777    6.7981   66.5015 C.3       2 UNK        -0.2004 
     39 N         -21.8591    8.9912   66.0695 N.am      2 UNK        -0.3987 
     40 C         -22.5025   10.1393   66.3232 C.2       1 UNK         0.5040 
     41 O         -23.3608   10.2726   67.1973 O.2       1 UNK        -0.5402 
     42 C         -23.9358    8.6660   70.7085 C.2       6 UNK         0.5028 
     43 O         -23.1791    8.0871   71.4904 O.2       6 UNK        -0.5338 
     44 N         -24.9378    8.0317   70.0737 N.am      7 UNK        -0.4387 
     45 CA        -25.2716    6.6080   70.2347 C.3       7 UNK         0.0207 
     46 CB        -26.4764    6.2527   69.3495 C.3       7 UNK        -0.1953 
     47 C         -25.5471    6.1800   71.6874 C.2       7 UNK         0.5041 
     48 O         -25.2816    5.0288   72.0336 O.2       7 UNK        -0.5277 
     49 N         -26.0215    7.1200   72.5187 N.am      8 UNK        -0.4416 
     50 CA        -26.2102    6.9530   73.9621 C.3       8 UNK         0.0315 
     51 CB        -26.9010    8.2051   74.5261 C.3       8 UNK        -0.1985 
     52 C         -24.9060    6.6654   74.7333 C.2       8 UNK         0.4986 
     53 O         -24.9623    6.0002   75.7685 O.2       8 UNK        -0.5356 
     54 N         -23.7690    7.1563   74.2208 N.am      9 UNK        -0.4252 
     55 CA        -22.4291    6.8683   74.7350 C.3       9 UNK         0.0253 
     56 CB        -21.5963    8.1616   74.7401 C.3       9 UNK        -0.1925 
     57 C         -21.7359    5.7905   73.8870 C.2       9 UNK         0.4998 
     58 O         -21.0705    4.9188   74.4479 O.2       9 UNK        -0.5191 
     59 N         -21.8989    5.8825   72.5603 N.am      10 UNK        -0.4154 
     60 CA        -21.2731    5.0356   71.5343 C.3       10 UNK         0.0675 
     61 C         -21.7146    3.5437   71.5813 C.2       10 UNK         0.5703 
     62 N         -22.9532    3.2454   71.9536 N.am      10 UNK        -0.7384 
     63 O         -20.9416    2.6443   71.2592 O.2       10 UNK        -0.4997 
     64 C64       -19.7258    5.2218   71.4427 C.3       11 UNK        -0.0906 
     65 S65       -19.1607    6.9615   71.4648 S.3       11 UNK        -0.2515 
     66 C66       -19.7523    7.5612   69.8501 C.3       11 UNK         0.0267 
     67 H67       -21.5255   10.4726   61.5239 H         1 UNK         0.0887 
     68 H68       -22.4660    8.9790   61.5682 H         1 UNK         0.0887 
     69 H69       -23.2438   10.4992   61.1202 H         1 UNK         0.0887 
     70 H70       -21.1302   11.2843   63.5675 H         1 UNK         0.3052 
     71 H71       -23.0305   11.9930   65.4395 H         1 UNK         0.0786 
     72 H72       -20.9060   13.1044   65.4193 H         1 UNK         0.0847 
     73 H73       -21.0810   12.3799   66.9854 H         1 UNK         0.0847 
     74 H74       -18.3495   12.7577   67.3005 H         1 UNK         0.0709 
     75 H75       -17.4114   11.3013   67.0912 H         1 UNK         0.0709 
     76 H76       -18.6653    9.0295   67.8074 H         1 UNK         0.1300 
     77 H77       -20.6487    9.4581   71.5807 H         1 UNK         0.1529 
     78 H78       -19.6081   12.9362   69.3014 H         1 UNK         0.1542 
     79 H79       -20.6352   11.7421   72.6282 H         1 UNK         0.0706 
     80 H80       -20.2286   13.1394   71.6715 H         1 UNK         0.0706 
     81 H81       -22.5654   10.3544   72.3349 H         1 UNK         0.0758 
     82 H82       -24.1186   11.0920   72.4373 H         1 UNK         0.0758 
     83 H83       -22.9176   10.2312   69.7524 H         1 UNK         0.0838 
     84 H84       -24.7217   11.0888   68.8478 H         1 UNK         0.3163 
     85 H85       -28.1381   11.2667   69.7503 H         1 UNK         0.0565 
     86 H86       -26.2418   13.6419   69.3487 H         1 UNK         0.0798 
     87 H87       -27.2968   13.4115   70.7357 H         1 UNK         0.0798 
     88 H88       -27.9949   13.6617   69.1453 H         1 UNK         0.0798 
     89 H89       -27.0527   12.2009   67.3983 H         1 UNK         0.2955 
     90 H90       -28.0122    9.9253   65.5808 H         1 UNK         0.0819 
     91 H91       -25.5693   11.7841   65.5598 H         1 UNK         0.0746 
     92 H92       -26.5247   11.3736   64.1427 H         1 UNK         0.0746 
     93 H93       -27.2631   12.2732   65.4487 H         1 UNK         0.0746 
     94 H94       -25.1989    9.3709   65.0689 H         1 UNK         0.2957 
     95 H95       -25.4717    5.8574   65.2946 H         1 UNK         0.0474 
     96 H96       -24.5238    5.9759   62.9922 H         1 UNK         0.0804 
     97 H97       -25.1532    7.6116   62.8003 H         1 UNK         0.0804 
     98 H98       -26.2574    6.2570   62.9820 H         1 UNK         0.0804 
     99 H99       -23.5834    8.0763   64.6983 H         1 UNK         0.2961 
    100 H100      -22.0961    7.9530   67.8503 H         1 UNK         0.0863 
    101 H101      -20.8390    6.4990   65.4531 H         1 UNK         0.0753 
    102 H102      -19.9284    7.2732   66.7453 H         1 UNK         0.0753 
    103 H103      -20.9478    5.8873   67.0979 H         1 UNK         0.0753 
    104 H104      -21.1707    8.9924   65.3305 H         1 UNK         0.3132 
    105 H105      -25.5223    8.5590   69.4303 H         1 UNK         0.3199 
    106 H106      -24.4098    6.0343   69.8881 H         1 UNK         0.0770 
    107 H107      -26.7189    5.1919   69.4252 H         1 UNK         0.0800 
    108 H108      -27.3666    6.8146   69.6346 H         1 UNK         0.0800 
    109 H109      -26.2744    6.4610   68.2988 H         1 UNK         0.0800 
    110 H110      -26.2118    8.0372   72.1374 H         1 UNK         0.3207 
    111 H111      -26.8728    6.0978   74.1109 H         1 UNK         0.0712 
    112 H112      -26.2995    9.1023   74.3731 H         1 UNK         0.0853 
    113 H113      -27.0729    8.1065   75.5990 H         1 UNK         0.0853 
    114 H114      -27.8720    8.3688   74.0583 H         1 UNK         0.0853 
    115 H115      -23.8117    7.6561   73.3391 H         1 UNK         0.3099 
    116 H116      -22.4882    6.5025   75.7623 H         1 UNK         0.0687 
    117 H117      -20.5962    7.9783   75.1354 H         1 UNK         0.0806 
    118 H118      -22.0572    8.9275   75.3638 H         1 UNK         0.0806 
    119 H119      -21.4778    8.5722   73.7372 H         1 UNK         0.0806 
    120 H120      -22.4339    6.6670   72.1925 H         1 UNK         0.2992 
    121 H121      -21.6897    5.3904   70.5923 H         1 UNK         0.0597 
    122 H122      -23.6337    3.9719   72.1527 H         1 UNK         0.3446 
    123 H123      -23.2360    2.2792   71.9793 H         1 UNK         0.3446 
    124 H124      -19.3399    4.7479   70.5383 H         1 UNK         0.0808 
    125 H125      -19.2415    4.7127   72.2778 H         1 UNK         0.0808 
    126 H126      -19.1812    7.0641   69.0652 H         1 UNK         0.0672 
    127 H127      -20.7943    7.2744   69.7160 H         1 UNK         0.0672 
@<TRIPOS>BOND
     1    1    2 1    
     2    1   67 1    
     3    1   68 1    
     4    1   69 1    
     5    2    3 2    
     6    2    4 am   BACKBONE|DICT|INTERRES
     7    4    5 1    
     8    4   70 1    
     9    5    6 1    
    10    5   40 1    
    11    5   71 1    
    12    6    7 1    
    13    6   72 1    
    14    6   73 1    
    15    7    8 1    
    16    8    9 1    
    17    8   74 1    
    18    8   75 1    
    19    9   10 ar   
    20    9   14 ar   
    21   10   11 ar   
    22   10   76 1    
    23   11   12 ar   
    24   11   66 1    
    25   12   13 ar   
    26   12   77 1    
    27   13   14 ar   
    28   13   15 1    
    29   14   78 1    
    30   15   16 1    
    31   15   79 1    
    32   15   80 1    
    33   16   17 1    
    34   17   18 1    
    35   17   81 1    
    36   17   82 1    
    37   18   19 1    
    38   18   42 1    
    39   18   83 1    
    40   19   20 am   BACKBONE|DICT|INTERRES
    41   19   84 1    
    42   20   21 2    
    43   20   22 1    
    44   22   23 1    
    45   22   24 1    
    46   22   85 1    
    47   23   86 1    
    48   23   87 1    
    49   23   88 1    
    50   24   25 am   BACKBONE|DICT|INTERRES
    51   24   89 1    
    52   25   26 2    
    53   25   27 1    
    54   27   28 1    
    55   27   29 1    
    56   27   90 1    
    57   28   91 1    
    58   28   92 1    
    59   28   93 1    
    60   29   30 am   BACKBONE|DICT|INTERRES
    61   29   94 1    
    62   30   31 2    
    63   30   32 1    
    64   32   33 1    
    65   32   34 1    
    66   32   95 1    
    67   33   96 1    
    68   33   97 1    
    69   33   98 1    
    70   34   35 am   BACKBONE|DICT|INTERRES
    71   34   99 1    
    72   35   36 2    
    73   35   37 1    
    74   37   38 1    
    75   37   39 1    
    76   37  100 1    
    77   38  101 1    
    78   38  102 1    
    79   38  103 1    
    80   39   40 am   BACKBONE|DICT|INTERRES
    81   39  104 1    
    82   40   41 2    
    83   42   43 2    
    84   42   44 am   BACKBONE|DICT|INTERRES
    85   44   45 1    
    86   44  105 1    
    87   45   46 1    
    88   45   47 1    
    89   45  106 1    
    90   46  107 1    
    91   46  108 1    
    92   46  109 1    
    93   47   48 2    
    94   47   49 am   BACKBONE|DICT|INTERRES
    95   49   50 1    
    96   49  110 1    
    97   50   51 1    
    98   50   52 1    
    99   50  111 1    
   100   51  112 1    
   101   51  113 1    
   102   51  114 1    
   103   52   53 2    
   104   52   54 am   BACKBONE|DICT|INTERRES
   105   54   55 1    
   106   54  115 1    
   107   55   56 1    
   108   55   57 1    
   109   55  116 1    
   110   56  117 1    
   111   56  118 1    
   112   56  119 1    
   113   57   58 2    
   114   57   59 am   BACKBONE|DICT|INTERRES
   115   59   60 1    
   116   59  120 1    
   117   60   61 1    
   118   60   64 1    
   119   60  121 1    
   120   61   62 am   BACKBONE|DICT|INTERRES
   121   61   63 2    
   122   62  122 1    
   123   62  123 1    
   124   64   65 1    
   125   64  124 1    
   126   64  125 1    
   127   65   66 1    
   128   66  126 1    
   129   66  127 1    
@<TRIPOS>SUBSTRUCTURE
     1 UNK         1 GROUP             0       ****    0 ROOT    
