@<TRIPOS>MOLECULE
3R226
127   129    1
SMALL
USER_CHARGES


@<TRIPOS>ATOM
      1 CA        -21.7627    9.6328   62.0703 C.3       0 UNK        -0.1989 
      2 C         -22.3254    9.6841   63.4817 C.2       0 UNK         0.4852 
      3 O         -23.3767   10.2871   63.6998 O.2       0 UNK        -0.5352 
      4 N         -21.6491    9.0404   64.4439 N.am      1 UNK        -0.4459 
      5 CA        -22.0136    9.0361   65.8684 C.3       1 UNK         0.0717 
      6 C6        -20.9308    8.3907   66.7677 C.3       11 UNK        -0.0963 
      7 S7        -19.2469    9.0347   66.4740 S.3       11 UNK        -0.2356 
      8 C8        -19.2923   10.6750   67.2789 C.3       11 UNK         0.0199 
      9 C9        -19.6111   10.6546   68.7731 C.ar      11 UNK        -0.0822 
     10 C10       -19.1734    9.6169   69.6054 C.ar      11 UNK        -0.0923 
     11 C11       -19.5045    9.5999   70.9637 C.ar      11 UNK        -0.0833 
     12 C12       -20.2405   10.6595   71.5012 C.ar      11 UNK        -0.0784 
     13 C13       -20.6629   11.7176   70.6893 C.ar      11 UNK        -0.0776 
     14 C14       -20.3443   11.7086   69.3282 C.ar      11 UNK        -0.0774 
     15 C15       -21.4825   12.8600   71.2787 C.3       11 UNK         0.0261 
     16 S16       -23.2494   12.7451   70.8364 S.3       11 UNK        -0.2530 
     17 C17       -23.6623   11.0826   71.4597 C.3       11 UNK        -0.0904 
     18 CA        -23.6585   10.0489   70.2971 C.3       6 UNK         0.1050 
     19 N         -24.8553   10.1162   69.4552 N.am      6 UNK        -0.4648 
     20 C         -26.1185    9.8309   69.7988 C.2       5 UNK         0.4985 
     21 O         -26.4620    9.5052   70.9358 O.2       5 UNK        -0.4884 
     22 CA        -27.1623    9.8428   68.6627 C.3       5 UNK         0.0409 
     23 CB        -28.5331   10.3822   69.1212 C.3       5 UNK        -0.1979 
     24 N         -26.6951   10.5097   67.4387 N.am      5 UNK        -0.4291 
     25 C         -26.4386   11.8149   67.2516 C.2       4 UNK         0.5023 
     26 O         -26.6421   12.6854   68.0977 O.2       4 UNK        -0.5047 
     27 CA        -25.8061   12.2238   65.9056 C.3       4 UNK         0.0288 
     28 CB        -24.3310   12.6076   66.1116 C.3       4 UNK        -0.2012 
     29 N         -25.8791   11.1840   64.8748 N.am      4 UNK        -0.4326 
     30 C         -26.9988   10.8048   64.2425 C.2       3 UNK         0.4958 
     31 O         -28.0949   11.3418   64.4031 O.2       3 UNK        -0.4896 
     32 CA        -26.8797    9.5919   63.3052 C.3       3 UNK         0.0404 
     33 CB        -26.4148   10.0251   61.9055 C.3       3 UNK        -0.1931 
     34 N         -25.9711    8.5705   63.8349 N.am      3 UNK        -0.4278 
     35 C         -26.2420    7.7823   64.8865 C.2       2 UNK         0.5055 
     36 O         -27.3031    7.8113   65.5091 O.2       2 UNK        -0.5114 
     37 CA        -25.1320    6.8217   65.3436 C.3       2 UNK         0.0155 
     38 CB        -25.1355    5.5373   64.4994 C.3       2 UNK        -0.2004 
     39 N         -23.8049    7.4387   65.2984 N.am      2 UNK        -0.3987 
     40 C         -23.3868    8.3899   66.1455 C.2       1 UNK         0.5040 
     41 O         -24.0446    8.7716   67.1139 O.2       1 UNK        -0.5402 
     42 C         -23.3615    8.6020   70.7371 C.2       6 UNK         0.5028 
     43 O         -22.9182    8.3762   71.8624 O.2       6 UNK        -0.5338 
     44 N         -23.6420    7.6379   69.8437 N.am      7 UNK        -0.4387 
     45 CA        -23.4263    6.1952   70.0201 C.3       7 UNK         0.0207 
     46 CB        -23.9562    5.4494   68.7860 C.3       7 UNK        -0.1953 
     47 C         -24.0190    5.5909   71.3083 C.2       7 UNK         0.5041 
     48 O         -23.4819    4.6009   71.8050 O.2       7 UNK        -0.5277 
     49 N         -25.0657    6.2195   71.8632 N.am      8 UNK        -0.4416 
     50 CA        -25.6378    5.9071   73.1766 C.3       8 UNK         0.0315 
     51 CB        -26.9039    6.7533   73.3854 C.3       8 UNK        -0.1985 
     52 C         -24.6564    6.1099   74.3509 C.2       8 UNK         0.4986 
     53 O         -24.8023    5.4376   75.3722 O.2       8 UNK        -0.5356 
     54 N         -23.6707    7.0034   74.1848 N.am      9 UNK        -0.4252 
     55 CA        -22.5777    7.2509   75.1275 C.3       9 UNK         0.0253 
     56 CB        -22.3070    8.7657   75.1813 C.3       9 UNK        -0.1925 
     57 C         -21.2960    6.4801   74.7515 C.2       9 UNK         0.4998 
     58 O         -20.2797    6.6612   75.4240 O.2       9 UNK        -0.5191 
     59 N         -21.3516    5.6468   73.7014 N.am      10 UNK        -0.4154 
     60 CA        -20.2426    4.8444   73.1544 C.3       10 UNK         0.0675 
     61 C         -19.7198    3.7217   74.1008 C.2       10 UNK         0.5703 
     62 N         -20.4737    3.3078   75.1121 N.am      10 UNK        -0.7384 
     63 O         -18.6303    3.1900   73.9001 O.2       10 UNK        -0.4997 
     64 C64       -19.0988    5.7100   72.5482 C.3       11 UNK        -0.0906 
     65 S65       -19.6925    6.8435   71.2461 S.3       11 UNK        -0.2515 
     66 C66       -19.0634    8.4420   71.8511 C.3       11 UNK         0.0267 
     67 H67       -21.5473   10.6413   61.7184 H         1 UNK         0.0887 
     68 H68       -20.8427    9.0509   62.0187 H         1 UNK         0.0887 
     69 H69       -22.4887    9.1837   61.3932 H         1 UNK         0.0887 
     70 H70       -20.7821    8.5733   64.2157 H         1 UNK         0.3052 
     71 H71       -22.1039   10.0817   66.1672 H         1 UNK         0.0786 
     72 H72       -21.1811    8.5200   67.8226 H         1 UNK         0.0847 
     73 H73       -20.8946    7.3119   66.6030 H         1 UNK         0.0847 
     74 H74       -20.0145   11.2950   66.7457 H         1 UNK         0.0709 
     75 H75       -18.3207   11.1512   67.1424 H         1 UNK         0.0709 
     76 H76       -18.5930    8.8020   69.1955 H         1 UNK         0.1300 
     77 H77       -20.4964   10.6542   72.5519 H         1 UNK         0.1529 
     78 H78       -20.6811   12.5224   68.6999 H         1 UNK         0.1542 
     79 H79       -21.3876   12.8815   72.3656 H         1 UNK         0.0706 
     80 H80       -21.0895   13.8125   70.9205 H         1 UNK         0.0706 
     81 H81       -22.9500   10.8298   72.2451 H         1 UNK         0.0758 
     82 H82       -24.6324   11.1194   71.9558 H         1 UNK         0.0758 
     83 H83       -22.8268   10.2863   69.6333 H         1 UNK         0.0838 
     84 H84       -24.6742   10.2433   68.4671 H         1 UNK         0.3163 
     85 H85       -27.3030    8.7975   68.3839 H         1 UNK         0.0565 
     86 H86       -29.2532   10.3817   68.3030 H         1 UNK         0.0798 
     87 H87       -28.9486    9.7637   69.9177 H         1 UNK         0.0798 
     88 H88       -28.4624   11.3990   69.5080 H         1 UNK         0.0798 
     89 H89       -26.4778    9.8852   66.6736 H         1 UNK         0.2955 
     90 H90       -26.3450   13.1020   65.5440 H         1 UNK         0.0819 
     91 H91       -23.7496   11.7710   66.4991 H         1 UNK         0.0746 
     92 H92       -23.8702   12.9317   65.1781 H         1 UNK         0.0746 
     93 H93       -24.2346   13.4284   66.8238 H         1 UNK         0.0746 
     94 H94       -25.0029   10.7398   64.6086 H         1 UNK         0.2957 
     95 H95       -27.8718    9.1460   63.2075 H         1 UNK         0.0474 
     96 H96       -27.0978   10.7618   61.4801 H         1 UNK         0.0804 
     97 H97       -26.3833    9.1794   61.2185 H         1 UNK         0.0804 
     98 H98       -25.4226   10.4771   61.9274 H         1 UNK         0.0804 
     99 H99       -25.0537    8.5252   63.4155 H         1 UNK         0.2961 
    100 H100      -25.3474    6.5469   66.3777 H         1 UNK         0.0863 
    101 H101      -24.4058    4.8177   64.8717 H         1 UNK         0.0753 
    102 H102      -24.9061    5.7376   63.4520 H         1 UNK         0.0753 
    103 H103      -26.1121    5.0521   64.5325 H         1 UNK         0.0753 
    104 H104      -23.1946    7.1724   64.5393 H         1 UNK         0.3132 
    105 H105      -23.9792    7.9387   68.9335 H         1 UNK         0.3199 
    106 H106      -22.3469    6.0422   70.0699 H         1 UNK         0.0770 
    107 H107      -23.4398    5.7644   67.8796 H         1 UNK         0.0800 
    108 H108      -23.8025    4.3735   68.8830 H         1 UNK         0.0800 
    109 H109      -25.0249    5.6142   68.6448 H         1 UNK         0.0800 
    110 H110      -25.4269    7.0404   71.3971 H         1 UNK         0.3207 
    111 H111      -25.9251    4.8537   73.1698 H         1 UNK         0.0712 
    112 H112      -27.6473    6.5555   72.6130 H         1 UNK         0.0853 
    113 H113      -26.6822    7.8216   73.3715 H         1 UNK         0.0853 
    114 H114      -27.3695    6.5293   74.3462 H         1 UNK         0.0853 
    115 H115      -23.5878    7.4949   73.2942 H         1 UNK         0.3099 
    116 H116      -22.8700    6.9246   76.1275 H         1 UNK         0.0687 
    117 H117      -21.9380    9.1434   74.2272 H         1 UNK         0.0806 
    118 H118      -23.2091    9.3219   75.4358 H         1 UNK         0.0806 
    119 H119      -21.5569    9.0037   75.9366 H         1 UNK         0.0806 
    120 H120      -22.2337    5.5312   73.2179 H         1 UNK         0.2992 
    121 H121      -20.6866    4.2937   72.3247 H         1 UNK         0.0597 
    122 H122      -21.3750    3.7249   75.2804 H         1 UNK         0.3446 
    123 H123      -20.1342    2.5737   75.7134 H         1 UNK         0.3446 
    124 H124      -18.3383    5.0742   72.0919 H         1 UNK         0.0808 
    125 H125      -18.5884    6.2712   73.3324 H         1 UNK         0.0808 
    126 H126      -17.9736    8.4117   71.8868 H         1 UNK         0.0672 
    127 H127      -19.4098    8.5883   72.8757 H         1 UNK         0.0672 
@<TRIPOS>BOND
     1    1    2 1    
     2    1   67 1    
     3    1   68 1    
     4    1   69 1    
     5    2    3 2    
     6    2    4 am   BACKBONE|DICT|INTERRES
     7    4    5 1    
     8    4   70 1    
     9    5    6 1    
    10    5   40 1    
    11    5   71 1    
    12    6    7 1    
    13    6   72 1    
    14    6   73 1    
    15    7    8 1    
    16    8    9 1    
    17    8   74 1    
    18    8   75 1    
    19    9   10 ar   
    20    9   14 ar   
    21   10   11 ar   
    22   10   76 1    
    23   11   12 ar   
    24   11   66 1    
    25   12   13 ar   
    26   12   77 1    
    27   13   14 ar   
    28   13   15 1    
    29   14   78 1    
    30   15   16 1    
    31   15   79 1    
    32   15   80 1    
    33   16   17 1    
    34   17   18 1    
    35   17   81 1    
    36   17   82 1    
    37   18   19 1    
    38   18   42 1    
    39   18   83 1    
    40   19   20 am   BACKBONE|DICT|INTERRES
    41   19   84 1    
    42   20   21 2    
    43   20   22 1    
    44   22   23 1    
    45   22   24 1    
    46   22   85 1    
    47   23   86 1    
    48   23   87 1    
    49   23   88 1    
    50   24   25 am   BACKBONE|DICT|INTERRES
    51   24   89 1    
    52   25   26 2    
    53   25   27 1    
    54   27   28 1    
    55   27   29 1    
    56   27   90 1    
    57   28   91 1    
    58   28   92 1    
    59   28   93 1    
    60   29   30 am   BACKBONE|DICT|INTERRES
    61   29   94 1    
    62   30   31 2    
    63   30   32 1    
    64   32   33 1    
    65   32   34 1    
    66   32   95 1    
    67   33   96 1    
    68   33   97 1    
    69   33   98 1    
    70   34   35 am   BACKBONE|DICT|INTERRES
    71   34   99 1    
    72   35   36 2    
    73   35   37 1    
    74   37   38 1    
    75   37   39 1    
    76   37  100 1    
    77   38  101 1    
    78   38  102 1    
    79   38  103 1    
    80   39   40 am   BACKBONE|DICT|INTERRES
    81   39  104 1    
    82   40   41 2    
    83   42   43 2    
    84   42   44 am   BACKBONE|DICT|INTERRES
    85   44   45 1    
    86   44  105 1    
    87   45   46 1    
    88   45   47 1    
    89   45  106 1    
    90   46  107 1    
    91   46  108 1    
    92   46  109 1    
    93   47   48 2    
    94   47   49 am   BACKBONE|DICT|INTERRES
    95   49   50 1    
    96   49  110 1    
    97   50   51 1    
    98   50   52 1    
    99   50  111 1    
   100   51  112 1    
   101   51  113 1    
   102   51  114 1    
   103   52   53 2    
   104   52   54 am   BACKBONE|DICT|INTERRES
   105   54   55 1    
   106   54  115 1    
   107   55   56 1    
   108   55   57 1    
   109   55  116 1    
   110   56  117 1    
   111   56  118 1    
   112   56  119 1    
   113   57   58 2    
   114   57   59 am   BACKBONE|DICT|INTERRES
   115   59   60 1    
   116   59  120 1    
   117   60   61 1    
   118   60   64 1    
   119   60  121 1    
   120   61   62 am   BACKBONE|DICT|INTERRES
   121   61   63 2    
   122   62  122 1    
   123   62  123 1    
   124   64   65 1    
   125   64  124 1    
   126   64  125 1    
   127   65   66 1    
   128   66  126 1    
   129   66  127 1    
@<TRIPOS>SUBSTRUCTURE
     1 UNK         1 GROUP             0       ****    0 ROOT    
