@<TRIPOS>MOLECULE
3R230
137   139    1
SMALL
USER_CHARGES


@<TRIPOS>ATOM
      1 CA         27.1585  -17.8697   23.2574 C.3       0 UNK        -0.1988 
      2 C          26.3374  -18.7818   24.1529 C.2       0 UNK         0.4863 
      3 O          26.7581  -19.1037   25.2659 O.2       0 UNK        -0.5397 
      4 N          25.1611  -19.2000   23.6738 N.am      1 UNK        -0.4445 
      5 CA         24.2241  -20.1030   24.3492 C.3       1 UNK         0.0730 
      6 C6         23.3079  -20.8348   23.3349 C.3       12 UNK        -0.0972 
      7 S7         24.2698  -21.7706   22.0944 S.3       12 UNK        -0.2202 
      8 C8         23.2429  -23.2500   21.8416 C.3       12 UNK         0.0176 
      9 C9         22.1540  -22.9885   20.8140 C.ar      12 UNK        -0.0775 
     10 C10        22.3660  -23.3133   19.4698 C.ar      12 UNK        -0.0890 
     11 C11        21.3763  -23.0642   18.5145 C.ar      12 UNK        -0.0764 
     12 C12        20.1728  -22.4769   18.9133 C.ar      12 UNK        -0.0850 
     13 C13        19.9637  -22.1159   20.2477 C.ar      12 UNK        -0.0766 
     14 C14        20.9445  -22.4040   21.2007 C.ar      12 UNK        -0.0822 
     15 C15        18.7001  -21.3630   20.6440 C.3       12 UNK         0.0283 
     16 S16        19.0345  -19.6136   21.0574 S.3       12 UNK        -0.2476 
     17 C17        20.0966  -19.0676   19.6742 C.3       12 UNK        -0.0922 
     18 CA         21.5802  -19.0039   20.1177 C.3       6 UNK         0.0829 
     19 N          21.8074  -17.8273   20.9597 N.am      6 UNK        -0.4363 
     20 C          22.9418  -17.4223   21.5384 C.2       5 UNK         0.4944 
     21 O          24.0285  -17.9853   21.3958 O.2       5 UNK        -0.5194 
     22 CA         22.8532  -16.2021   22.4710 C.3       5 UNK         0.0276 
     23 CB         22.8094  -14.8839   21.6728 C.3       5 UNK        -0.1968 
     24 N          21.7645  -16.2774   23.4575 N.am      5 UNK        -0.4376 
     25 C          20.4365  -16.2473   23.2546 C.2       4 UNK         0.5047 
     26 O          19.9188  -16.1385   22.1423 O.2       4 UNK        -0.5312 
     27 CA         19.5204  -16.3851   24.4846 C.3       4 UNK         0.0265 
     28 CB         18.8801  -17.7822   24.5228 C.3       4 UNK        -0.1934 
     29 N          20.2147  -16.1453   25.7510 N.am      4 UNK        -0.4826 
     30 C          20.5628  -14.9358   26.2117 C.2       3 UNK         0.5039 
     31 O          20.2625  -13.8817   25.6520 O.2       3 UNK        -0.5122 
     32 CA         21.3993  -14.8905   27.5046 C.3       3 UNK         0.0265 
     33 CB         20.5169  -14.4993   28.7012 C.3       3 UNK        -0.1925 
     34 N          22.0936  -16.1472   27.8134 N.am      3 UNK        -0.4853 
     35 C          23.0703  -16.6898   27.0732 C.2       2 UNK         0.4994 
     36 O          23.5000  -16.1722   26.0396 O.2       2 UNK        -0.4819 
     37 CA         23.6603  -18.0286   27.5633 C.3       2 UNK         0.0219 
     38 CB         22.7053  -18.8375   28.4720 C.3       2 UNK        -0.1992 
     39 N          24.1372  -18.8585   26.4523 N.am      2 UNK        -0.3931 
     40 C          23.4230  -19.3346   25.4220 C.2       1 UNK         0.5013 
     41 O          22.2095  -19.1616   25.2854 O.2       1 UNK        -0.5307 
     42 C          22.5667  -19.0818   18.9361 C.2       6 UNK         0.5096 
     43 O          22.3687  -18.4181   17.9159 O.2       6 UNK        -0.5431 
     44 N          23.6520  -19.8472   19.1191 N.am      7 UNK        -0.4324 
     45 CA         24.7732  -19.9575   18.1834 C.3       7 UNK         0.0295 
     46 CB         25.7534  -21.0278   18.6862 C.3       7 UNK        -0.2002 
     47 C          25.5020  -18.6243   17.9393 C.2       7 UNK         0.4938 
     48 O          25.9429  -18.3821   16.8162 O.2       7 UNK        -0.5220 
     49 N          25.5616  -17.7518   18.9577 N.am      8 UNK        -0.4332 
     50 CA         26.0824  -16.3846   18.8336 C.3       8 UNK         0.0262 
     51 CB         26.4797  -15.8413   20.2161 C.3       8 UNK        -0.1912 
     52 C          25.1212  -15.4269   18.1013 C.2       8 UNK         0.4994 
     53 O          25.5586  -14.3574   17.6765 O.2       8 UNK        -0.5360 
     54 N          23.8558  -15.8339   17.9239 N.am      9 UNK        -0.4242 
     55 CA         22.8746  -15.1883   17.0492 C.3       9 UNK         0.0249 
     56 CB         21.5135  -15.1343   17.7679 C.3       9 UNK        -0.2031 
     57 C          22.7763  -15.9165   15.6919 C.2       9 UNK         0.5024 
     58 O          21.8058  -15.7051   14.9641 O.2       9 UNK        -0.5112 
     59 N          23.7629  -16.7731   15.3765 N.am      10 UNK        -0.4778 
     60 CA         23.9190  -17.5546   14.1440 C.3       10 UNK         0.0300 
     61 CB         24.2179  -16.6213   12.9510 C.3       10 UNK        -0.1920 
     62 C          22.7529  -18.5230   13.8658 C.2       10 UNK         0.5008 
     63 O          22.4367  -18.7727   12.7003 O.2       10 UNK        -0.5363 
     64 N          22.1310  -19.0507   14.9283 N.am      11 UNK        -0.4192 
     65 CA         20.9354  -19.9028   14.8323 C.3       11 UNK         0.0719 
     66 C          19.6084  -19.1003   14.6906 C.2       11 UNK         0.5599 
     67 N          19.6098  -17.7727   14.7201 N.am      11 UNK        -0.7396 
     68 O          18.5466  -19.6983   14.5371 O.2       11 UNK        -0.5259 
     69 C69        20.8544  -20.9239   15.9948 C.3       12 UNK        -0.0916 
     70 S70        22.2929  -22.0410   16.0946 S.3       12 UNK        -0.2335 
     71 C71        21.6054  -23.4299   17.0534 C.3       12 UNK         0.0197 
     72 H72        26.9520  -16.8252   23.4892 H         1 UNK         0.0896 
     73 H73        26.9265  -18.0467   22.2078 H         1 UNK         0.0896 
     74 H74        28.2233  -18.0512   23.4006 H         1 UNK         0.0896 
     75 H75        24.8472  -18.8559   22.7684 H         1 UNK         0.3064 
     76 H76        24.8020  -20.8675   24.8736 H         1 UNK         0.0729 
     77 H77        22.6601  -20.1270   22.8194 H         1 UNK         0.0873 
     78 H78        22.6448  -21.5192   23.8665 H         1 UNK         0.0873 
     79 H79        22.8107  -23.5830   22.7862 H         1 UNK         0.0634 
     80 H80        23.8862  -24.0630   21.5016 H         1 UNK         0.0634 
     81 H81        23.3036  -23.7581   19.1654 H         1 UNK         0.1345 
     82 H82        19.4091  -22.2700   18.1765 H         1 UNK         0.1434 
     83 H83        20.7824  -22.1294   22.2341 H         1 UNK         0.1445 
     84 H84        17.9625  -21.3982   19.8408 H         1 UNK         0.0659 
     85 H85        18.2399  -21.8501   21.5047 H         1 UNK         0.0659 
     86 H86        19.7548  -18.0911   19.3260 H         1 UNK         0.0718 
     87 H87        19.9448  -19.7421   18.8358 H         1 UNK         0.0718 
     88 H88        21.7806  -19.8751   20.7384 H         1 UNK         0.0994 
     89 H89        20.9762  -17.2812   21.1810 H         1 UNK         0.3202 
     90 H90        23.7742  -16.1966   23.0568 H         1 UNK         0.0872 
     91 H91        21.8933  -14.7849   21.0915 H         1 UNK         0.0757 
     92 H92        22.8748  -14.0220   22.3368 H         1 UNK         0.0757 
     93 H93        23.6398  -14.8144   20.9708 H         1 UNK         0.0757 
     94 H94        22.0765  -16.3944   24.4157 H         1 UNK         0.3166 
     95 H95        18.7236  -15.6453   24.3784 H         1 UNK         0.1106 
     96 H96        18.3014  -17.9692   23.6172 H         1 UNK         0.0771 
     97 H97        18.1989  -17.8858   25.3674 H         1 UNK         0.0771 
     98 H98        19.6313  -18.5698   24.5957 H         1 UNK         0.0771 
     99 H99        20.5142  -16.9601   26.2687 H         1 UNK         0.3020 
    100 H100       22.1561  -14.1148   27.3654 H         1 UNK         0.1213 
    101 H101       19.7492  -15.2485   28.8988 H         1 UNK         0.0791 
    102 H102       20.0077  -13.5520   28.5179 H         1 UNK         0.0791 
    103 H103       21.1088  -14.3752   29.6083 H         1 UNK         0.0791 
    104 H104       21.7952  -16.6355   28.6458 H         1 UNK         0.2989 
    105 H105       24.5440  -17.7737   28.1497 H         1 UNK         0.0698 
    106 H106       22.5025  -18.3149   29.4073 H         1 UNK         0.0781 
    107 H107       21.7489  -19.0353   27.9858 H         1 UNK         0.0781 
    108 H108       23.1421  -19.7996   28.7404 H         1 UNK         0.0781 
    109 H109       25.1445  -18.9828   26.3915 H         1 UNK         0.3011 
    110 H110       23.7572  -20.3351   19.9988 H         1 UNK         0.3286 
    111 H111       24.3713  -20.2852   17.2234 H         1 UNK         0.0793 
    112 H112       26.1750  -20.7664   19.6577 H         1 UNK         0.0801 
    113 H113       26.5851  -21.1521   17.9913 H         1 UNK         0.0801 
    114 H114       25.2653  -21.9980   18.7816 H         1 UNK         0.0801 
    115 H115       25.1374  -18.0018   19.8482 H         1 UNK         0.3077 
    116 H116       26.9918  -16.4222   18.2295 H         1 UNK         0.0780 
    117 H117       26.7583  -14.7879   20.1619 H         1 UNK         0.0802 
    118 H118       27.3452  -16.3750   20.6066 H         1 UNK         0.0802 
    119 H119       25.6749  -15.9286   20.9434 H         1 UNK         0.0802 
    120 H120       23.5845  -16.7525   18.2565 H         1 UNK         0.3232 
    121 H121       23.1795  -14.1621   16.8354 H         1 UNK         0.0708 
    122 H122       20.7722  -14.6092   17.1643 H         1 UNK         0.0842 
    123 H123       21.1177  -16.1293   17.9714 H         1 UNK         0.0842 
    124 H124       21.5878  -14.6018   18.7151 H         1 UNK         0.0842 
    125 H125       24.5004  -16.9175   16.0556 H         1 UNK         0.3087 
    126 H126       24.7960  -18.1868   14.2934 H         1 UNK         0.1102 
    127 H127       24.4755  -17.1937   12.0590 H         1 UNK         0.0796 
    128 H128       25.0599  -15.9627   13.1638 H         1 UNK         0.0796 
    129 H129       23.3587  -15.9982   12.7005 H         1 UNK         0.0796 
    130 H130       22.4043  -18.7691   15.8644 H         1 UNK         0.3190 
    131 H131       21.0094  -20.4871   13.9133 H         1 UNK         0.0713 
    132 H132       18.7352  -17.2834   14.6200 H         1 UNK         0.3480 
    133 H133       20.4696  -17.2448   14.8163 H         1 UNK         0.3480 
    134 H134       20.7659  -20.3991   16.9414 H         1 UNK         0.0857 
    135 H135       19.9568  -21.5366   15.8935 H         1 UNK         0.0857 
    136 H136       22.2965  -24.2715   16.9879 H         1 UNK         0.0638 
    137 H137       20.6746  -23.7685   16.5960 H         1 UNK         0.0638 
@<TRIPOS>BOND
     1    1    2 1    
     2    1   72 1    
     3    1   73 1    
     4    1   74 1    
     5    2    3 2    
     6    2    4 am   BACKBONE|DICT|INTERRES
     7    4    5 1    
     8    4   75 1    
     9    5    6 1    
    10    5   40 1    
    11    5   76 1    
    12    6    7 1    
    13    6   77 1    
    14    6   78 1    
    15    7    8 1    
    16    8    9 1    
    17    8   79 1    
    18    8   80 1    
    19    9   10 ar   
    20    9   14 ar   
    21   10   11 ar   
    22   10   81 1    
    23   11   12 ar   
    24   11   71 1    
    25   12   13 ar   
    26   12   82 1    
    27   13   14 ar   
    28   13   15 1    
    29   14   83 1    
    30   15   16 1    
    31   15   84 1    
    32   15   85 1    
    33   16   17 1    
    34   17   18 1    
    35   17   86 1    
    36   17   87 1    
    37   18   19 1    
    38   18   42 1    
    39   18   88 1    
    40   19   20 am   BACKBONE|DICT|INTERRES
    41   19   89 1    
    42   20   21 2    
    43   20   22 1    
    44   22   23 1    
    45   22   24 1    
    46   22   90 1    
    47   23   91 1    
    48   23   92 1    
    49   23   93 1    
    50   24   25 am   BACKBONE|DICT|INTERRES
    51   24   94 1    
    52   25   26 2    
    53   25   27 1    
    54   27   28 1    
    55   27   29 1    
    56   27   95 1    
    57   28   96 1    
    58   28   97 1    
    59   28   98 1    
    60   29   30 am   BACKBONE|DICT|INTERRES
    61   29   99 1    
    62   30   31 2    
    63   30   32 1    
    64   32   33 1    
    65   32   34 1    
    66   32  100 1    
    67   33  101 1    
    68   33  102 1    
    69   33  103 1    
    70   34   35 am   BACKBONE|DICT|INTERRES
    71   34  104 1    
    72   35   36 2    
    73   35   37 1    
    74   37   38 1    
    75   37   39 1    
    76   37  105 1    
    77   38  106 1    
    78   38  107 1    
    79   38  108 1    
    80   39   40 am   BACKBONE|DICT|INTERRES
    81   39  109 1    
    82   40   41 2    
    83   42   43 2    
    84   42   44 am   BACKBONE|DICT|INTERRES
    85   44   45 1    
    86   44  110 1    
    87   45   46 1    
    88   45   47 1    
    89   45  111 1    
    90   46  112 1    
    91   46  113 1    
    92   46  114 1    
    93   47   48 2    
    94   47   49 am   BACKBONE|DICT|INTERRES
    95   49   50 1    
    96   49  115 1    
    97   50   51 1    
    98   50   52 1    
    99   50  116 1    
   100   51  117 1    
   101   51  118 1    
   102   51  119 1    
   103   52   53 2    
   104   52   54 am   BACKBONE|DICT|INTERRES
   105   54   55 1    
   106   54  120 1    
   107   55   56 1    
   108   55   57 1    
   109   55  121 1    
   110   56  122 1    
   111   56  123 1    
   112   56  124 1    
   113   57   58 2    
   114   57   59 am   BACKBONE|DICT|INTERRES
   115   59   60 1    
   116   59  125 1    
   117   60   61 1    
   118   60   62 1    
   119   60  126 1    
   120   61  127 1    
   121   61  128 1    
   122   61  129 1    
   123   62   63 2    
   124   62   64 am   BACKBONE|DICT|INTERRES
   125   64   65 1    
   126   64  130 1    
   127   65   66 1    
   128   65   69 1    
   129   65  131 1    
   130   66   67 am   BACKBONE|DICT|INTERRES
   131   66   68 2    
   132   67  132 1    
   133   67  133 1    
   134   69   70 1    
   135   69  134 1    
   136   69  135 1    
   137   70   71 1    
   138   71  136 1    
   139   71  137 1    
@<TRIPOS>SUBSTRUCTURE
     1 UNK         1 GROUP             0       ****    0 ROOT    
