@<TRIPOS>MOLECULE
3R230
137   139    1
SMALL
USER_CHARGES


@<TRIPOS>ATOM
      1 CA         24.8653  -21.4120   27.7581 C.3       0 UNK        -0.1988 
      2 C          24.2247  -20.7228   26.5635 C.2       0 UNK         0.4863 
      3 O          24.5831  -19.5867   26.2541 O.2       0 UNK        -0.5397 
      4 N          23.2685  -21.3949   25.9052 N.am      1 UNK        -0.4445 
      5 CA         22.5564  -20.9540   24.6939 C.3       1 UNK         0.0730 
      6 C6         23.4470  -20.9631   23.4212 C.3       12 UNK        -0.0972 
      7 S7         24.2144  -22.5785   23.0648 S.3       12 UNK        -0.2202 
      8 C8         22.7758  -23.6303   22.6826 C.3       12 UNK         0.0176 
      9 C9         22.0023  -23.1570   21.4596 C.ar      12 UNK        -0.0775 
     10 C10        22.4745  -23.4574   20.1784 C.ar      12 UNK        -0.0890 
     11 C11        21.7434  -23.0866   19.0460 C.ar      12 UNK        -0.0764 
     12 C12        20.5330  -22.4070   19.2075 C.ar      12 UNK        -0.0850 
     13 C13        20.0707  -22.0600   20.4790 C.ar      12 UNK        -0.0766 
     14 C14        20.8020  -22.4511   21.6045 C.ar      12 UNK        -0.0822 
     15 C15        18.7752  -21.2710   20.6247 C.3       12 UNK         0.0283 
     16 S16        19.0590  -19.5193   21.0507 S.3       12 UNK        -0.2476 
     17 C17        20.1703  -18.9445   19.7168 C.3       12 UNK        -0.0922 
     18 CA         21.6196  -18.7933   20.2485 C.3       6 UNK         0.0829 
     19 N          21.7406  -17.7459   21.2739 N.am      6 UNK        -0.4363 
     20 C          21.6903  -16.4223   21.0555 C.2       5 UNK         0.4944 
     21 O          21.5062  -15.9092   19.9523 O.2       5 UNK        -0.5194 
     22 CA         21.9597  -15.5066   22.2592 C.3       5 UNK         0.0276 
     23 CB         20.6539  -15.1959   23.0017 C.3       5 UNK        -0.1968 
     24 N          22.9593  -16.0456   23.1867 N.am      5 UNK        -0.4376 
     25 C          24.2333  -16.3137   22.8628 C.2       4 UNK         0.5047 
     26 O          24.6856  -16.1422   21.7298 O.2       4 UNK        -0.5312 
     27 CA         25.1545  -16.9184   23.9397 C.3       4 UNK         0.0265 
     28 CB         26.5565  -16.2744   23.9273 C.3       4 UNK        -0.1934 
     29 N          24.5940  -16.9420   25.2957 N.am      4 UNK        -0.4826 
     30 C          24.2920  -15.9065   26.0912 C.2       3 UNK         0.5039 
     31 O          24.4527  -14.7250   25.7829 O.2       3 UNK        -0.5122 
     32 CA         23.6705  -16.2828   27.4497 C.3       3 UNK         0.0265 
     33 CB         23.2402  -15.0576   28.2854 C.3       3 UNK        -0.1925 
     34 N          22.5621  -17.2372   27.2968 N.am      3 UNK        -0.4853 
     35 C          21.4130  -17.0436   26.6303 C.2       2 UNK         0.4994 
     36 O          21.1014  -15.9838   26.0891 O.2       2 UNK        -0.4819 
     37 CA         20.4776  -18.2650   26.5400 C.3       2 UNK         0.0219 
     38 CB         19.1978  -18.0079   25.7152 C.3       2 UNK        -0.1992 
     39 N          21.1783  -19.4599   26.0561 N.am      2 UNK        -0.3931 
     40 C          21.8173  -19.6107   24.8837 C.2       1 UNK         0.5013 
     41 O          21.8548  -18.7564   23.9932 O.2       1 UNK        -0.5307 
     42 C          22.6967  -18.6260   19.1501 C.2       6 UNK         0.5096 
     43 O          22.3944  -18.5889   17.9534 O.2       6 UNK        -0.5431 
     44 N          23.9503  -18.4867   19.6078 N.am      7 UNK        -0.4324 
     45 CA         25.1335  -18.2647   18.7795 C.3       7 UNK         0.0295 
     46 CB         26.4009  -18.5124   19.6134 C.3       7 UNK        -0.2002 
     47 C          25.1596  -16.8648   18.1483 C.2       7 UNK         0.4938 
     48 O          25.5284  -16.7489   16.9806 O.2       7 UNK        -0.5220 
     49 N          24.7409  -15.8333   18.8981 N.am      8 UNK        -0.4332 
     50 CA         24.6139  -14.4527   18.4123 C.3       8 UNK         0.0262 
     51 CB         24.2823  -13.5130   19.5809 C.3       8 UNK        -0.1912 
     52 C          23.5754  -14.3032   17.2854 C.2       8 UNK         0.4994 
     53 O          23.7950  -13.5186   16.3620 O.2       8 UNK        -0.5360 
     54 N          22.4940  -15.0922   17.3528 N.am      9 UNK        -0.4242 
     55 CA         21.4929  -15.2480   16.2945 C.3       9 UNK         0.0249 
     56 CB         20.2110  -15.8392   16.9053 C.3       9 UNK        -0.2031 
     57 C          21.9708  -16.1153   15.1115 C.2       9 UNK         0.5024 
     58 O          21.2086  -16.2818   14.1588 O.2       9 UNK        -0.5112 
     59 N          23.1877  -16.6780   15.1880 N.am      10 UNK        -0.4778 
     60 CA         23.8401  -17.5443   14.1978 C.3       10 UNK         0.0300 
     61 CB         24.1933  -16.7418   12.9274 C.3       10 UNK        -0.1920 
     62 C          23.0411  -18.8257   13.8961 C.2       10 UNK         0.5008 
     63 O          23.0225  -19.2834   12.7512 O.2       10 UNK        -0.5363 
     64 N          22.3807  -19.3734   14.9237 N.am      11 UNK        -0.4192 
     65 CA         21.4550  -20.5079   14.7969 C.3       11 UNK         0.0719 
     66 C          20.0690  -20.1395   14.1878 C.2       11 UNK         0.5599 
     67 N          19.7549  -18.8783   13.9181 N.am      11 UNK        -0.7396 
     68 O          19.2558  -21.0271   13.9434 O.2       11 UNK        -0.5259 
     69 C69        21.2931  -21.2540   16.1430 C.3       12 UNK        -0.0916 
     70 S70        22.8561  -21.9762   16.7526 S.3       12 UNK        -0.2335 
     71 C71        22.2509  -23.4401   17.6538 C.3       12 UNK         0.0197 
     72 H72        24.4521  -22.4062   27.9270 H         1 UNK         0.0896 
     73 H73        24.7099  -20.8211   28.6602 H         1 UNK         0.0896 
     74 H74        25.9383  -21.5137   27.5981 H         1 UNK         0.0896 
     75 H75        23.0269  -22.3226   26.2262 H         1 UNK         0.3064 
     76 H76        21.7561  -21.6778   24.5453 H         1 UNK         0.0729 
     77 H77        24.2468  -20.2275   23.5164 H         1 UNK         0.0873 
     78 H78        22.8736  -20.6694   22.5436 H         1 UNK         0.0873 
     79 H79        23.1336  -24.6458   22.5067 H         1 UNK         0.0634 
     80 H80        22.1224  -23.6980   23.5525 H         1 UNK         0.0634 
     81 H81        23.4061  -23.9956   20.0664 H         1 UNK         0.1345 
     82 H82        19.9492  -22.1352   18.3410 H         1 UNK         0.1434 
     83 H83        20.4311  -22.2055   22.5897 H         1 UNK         0.1445 
     84 H84        18.1886  -21.3190   19.7059 H         1 UNK         0.0659 
     85 H85        18.1596  -21.7262   21.4017 H         1 UNK         0.0659 
     86 H86        19.7961  -17.9945   19.3342 H         1 UNK         0.0718 
     87 H87        20.1216  -19.6438   18.8833 H         1 UNK         0.0718 
     88 H88        21.8739  -19.7338   20.7360 H         1 UNK         0.0994 
     89 H89        21.8468  -18.0668   22.2357 H         1 UNK         0.3202 
     90 H90        22.3546  -14.5651   21.8764 H         1 UNK         0.0872 
     91 H91        19.9138  -14.7636   22.3269 H         1 UNK         0.0757 
     92 H92        20.8159  -14.4796   23.8072 H         1 UNK         0.0757 
     93 H93        20.2162  -16.0953   23.4326 H         1 UNK         0.0757 
     94 H94        22.6473  -16.2579   24.1258 H         1 UNK         0.3166 
     95 H95        25.2775  -17.9655   23.6599 H         1 UNK         0.1106 
     96 H96        27.2099  -16.7322   24.6700 H         1 UNK         0.0771 
     97 H97        26.5134  -15.2040   24.1300 H         1 UNK         0.0771 
     98 H98        27.0367  -16.3992   22.9558 H         1 UNK         0.0771 
     99 H99        24.4372  -17.8802   25.6677 H         1 UNK         0.3020 
    100 H100       24.4546  -16.7999   28.0062 H         1 UNK         0.1213 
    101 H101       24.0931  -14.4096   28.4913 H         1 UNK         0.0791 
    102 H102       22.8237  -15.3592   29.2463 H         1 UNK         0.0791 
    103 H103       22.4932  -14.4530   27.7704 H         1 UNK         0.0791 
    104 H104       22.7393  -18.1616   27.6650 H         1 UNK         0.2989 
    105 H105       20.1652  -18.4788   27.5633 H         1 UNK         0.0698 
    106 H106       18.6650  -17.1279   26.0777 H         1 UNK         0.0781 
    107 H107       19.4159  -17.8473   24.6602 H         1 UNK         0.0781 
    108 H108       18.5113  -18.8515   25.7837 H         1 UNK         0.0781 
    109 H109       21.2295  -20.2282   26.7105 H         1 UNK         0.3011 
    110 H110       24.0930  -18.4567   20.6064 H         1 UNK         0.3286 
    111 H111       25.1124  -18.9941   17.9664 H         1 UNK         0.0793 
    112 H112       27.2972  -18.3808   19.0055 H         1 UNK         0.0801 
    113 H113       26.4756  -17.8232   20.4555 H         1 UNK         0.0801 
    114 H114       26.4248  -19.5287   20.0072 H         1 UNK         0.0801 
    115 H115       24.5322  -15.9955   19.8821 H         1 UNK         0.3077 
    116 H116       25.5853  -14.1606   18.0079 H         1 UNK         0.0780 
    117 H117       24.3070  -12.4712   19.2590 H         1 UNK         0.0802 
    118 H118       24.9976  -13.6191   20.3968 H         1 UNK         0.0802 
    119 H119       23.2859  -13.7044   19.9769 H         1 UNK         0.0802 
    120 H120       22.3472  -15.6427   18.1959 H         1 UNK         0.3232 
    121 H121       21.2566  -14.2592   15.8964 H         1 UNK         0.0708 
    122 H122       19.4120  -15.8979   16.1651 H         1 UNK         0.0842 
    123 H123       19.8436  -15.2287   17.7303 H         1 UNK         0.0842 
    124 H124       20.3785  -16.8479   17.2834 H         1 UNK         0.0842 
    125 H125       23.7449  -16.4998   16.0170 H         1 UNK         0.3087 
    126 H126       24.7769  -17.8771   14.6474 H         1 UNK         0.1102 
    127 H127       24.7941  -17.3393   12.2406 H         1 UNK         0.0796 
    128 H128       24.7724  -15.8510   13.1707 H         1 UNK         0.0796 
    129 H129       23.3004  -16.4252   12.3873 H         1 UNK         0.0796 
    130 H130       22.4434  -18.9500   15.8446 H         1 UNK         0.3190 
    131 H131       21.8948  -21.2144   14.0906 H         1 UNK         0.0713 
    132 H132       18.8517  -18.6780   13.5199 H         1 UNK         0.3480 
    133 H133       20.4111  -18.1210   14.0721 H         1 UNK         0.3480 
    134 H134       20.9014  -20.5743   16.8992 H         1 UNK         0.0857 
    135 H135       20.5615  -22.0571   16.0382 H         1 UNK         0.0857 
    136 H136       21.4651  -23.9380   17.0842 H         1 UNK         0.0638 
    137 H137       23.0699  -24.1576   17.7234 H         1 UNK         0.0638 
@<TRIPOS>BOND
     1    1    2 1    
     2    1   72 1    
     3    1   73 1    
     4    1   74 1    
     5    2    3 2    
     6    2    4 am   BACKBONE|DICT|INTERRES
     7    4    5 1    
     8    4   75 1    
     9    5    6 1    
    10    5   40 1    
    11    5   76 1    
    12    6    7 1    
    13    6   77 1    
    14    6   78 1    
    15    7    8 1    
    16    8    9 1    
    17    8   79 1    
    18    8   80 1    
    19    9   10 ar   
    20    9   14 ar   
    21   10   11 ar   
    22   10   81 1    
    23   11   12 ar   
    24   11   71 1    
    25   12   13 ar   
    26   12   82 1    
    27   13   14 ar   
    28   13   15 1    
    29   14   83 1    
    30   15   16 1    
    31   15   84 1    
    32   15   85 1    
    33   16   17 1    
    34   17   18 1    
    35   17   86 1    
    36   17   87 1    
    37   18   19 1    
    38   18   42 1    
    39   18   88 1    
    40   19   20 am   BACKBONE|DICT|INTERRES
    41   19   89 1    
    42   20   21 2    
    43   20   22 1    
    44   22   23 1    
    45   22   24 1    
    46   22   90 1    
    47   23   91 1    
    48   23   92 1    
    49   23   93 1    
    50   24   25 am   BACKBONE|DICT|INTERRES
    51   24   94 1    
    52   25   26 2    
    53   25   27 1    
    54   27   28 1    
    55   27   29 1    
    56   27   95 1    
    57   28   96 1    
    58   28   97 1    
    59   28   98 1    
    60   29   30 am   BACKBONE|DICT|INTERRES
    61   29   99 1    
    62   30   31 2    
    63   30   32 1    
    64   32   33 1    
    65   32   34 1    
    66   32  100 1    
    67   33  101 1    
    68   33  102 1    
    69   33  103 1    
    70   34   35 am   BACKBONE|DICT|INTERRES
    71   34  104 1    
    72   35   36 2    
    73   35   37 1    
    74   37   38 1    
    75   37   39 1    
    76   37  105 1    
    77   38  106 1    
    78   38  107 1    
    79   38  108 1    
    80   39   40 am   BACKBONE|DICT|INTERRES
    81   39  109 1    
    82   40   41 2    
    83   42   43 2    
    84   42   44 am   BACKBONE|DICT|INTERRES
    85   44   45 1    
    86   44  110 1    
    87   45   46 1    
    88   45   47 1    
    89   45  111 1    
    90   46  112 1    
    91   46  113 1    
    92   46  114 1    
    93   47   48 2    
    94   47   49 am   BACKBONE|DICT|INTERRES
    95   49   50 1    
    96   49  115 1    
    97   50   51 1    
    98   50   52 1    
    99   50  116 1    
   100   51  117 1    
   101   51  118 1    
   102   51  119 1    
   103   52   53 2    
   104   52   54 am   BACKBONE|DICT|INTERRES
   105   54   55 1    
   106   54  120 1    
   107   55   56 1    
   108   55   57 1    
   109   55  121 1    
   110   56  122 1    
   111   56  123 1    
   112   56  124 1    
   113   57   58 2    
   114   57   59 am   BACKBONE|DICT|INTERRES
   115   59   60 1    
   116   59  125 1    
   117   60   61 1    
   118   60   62 1    
   119   60  126 1    
   120   61  127 1    
   121   61  128 1    
   122   61  129 1    
   123   62   63 2    
   124   62   64 am   BACKBONE|DICT|INTERRES
   125   64   65 1    
   126   64  130 1    
   127   65   66 1    
   128   65   69 1    
   129   65  131 1    
   130   66   67 am   BACKBONE|DICT|INTERRES
   131   66   68 2    
   132   67  132 1    
   133   67  133 1    
   134   69   70 1    
   135   69  134 1    
   136   69  135 1    
   137   70   71 1    
   138   71  136 1    
   139   71  137 1    
@<TRIPOS>SUBSTRUCTURE
     1 UNK         1 GROUP             0       ****    0 ROOT    
