@<TRIPOS>MOLECULE
3R137
137   139    1
SMALL
USER_CHARGES


@<TRIPOS>ATOM
      1 CA         30.0236   -0.0370   -2.2642 C.3       0 UNK        -0.2020 
      2 C          29.3287   -1.0444   -1.3614 C.2       0 UNK         0.4855 
      3 O          28.8871   -0.6870   -0.2697 O.2       0 UNK        -0.5197 
      4 N          29.2231   -2.2982   -1.8206 N.am      1 UNK        -0.4892 
      5 CA         28.5589   -3.4257   -1.1513 C.3       1 UNK         0.0835 
      6 C6         29.3388   -3.9472    0.0927 C.3       12 UNK        -0.0855 
      7 S7         29.5631   -5.7601    0.0204 S.3       12 UNK        -0.2931 
      8 C8         31.2161   -5.9240   -0.7459 C.3       12 UNK         0.0378 
      9 C9         31.3590   -5.0991   -2.0207 C.ar      12 UNK        -0.0802 
     10 C10        32.2440   -4.0155   -2.0576 C.ar      12 UNK        -0.0944 
     11 C11        32.3365   -3.2109   -3.1969 C.ar      12 UNK        -0.0787 
     12 C12        31.5318   -3.5004   -4.3021 C.ar      12 UNK        -0.0862 
     13 C13        30.6333   -4.5686   -4.2766 C.ar      12 UNK        -0.0733 
     14 C14        30.5754   -5.3871   -3.1445 C.ar      12 UNK        -0.0832 
     15 C15        29.7087   -4.8174   -5.4611 C.3       12 UNK         0.0240 
     16 S16        28.0759   -4.0370   -5.2166 S.3       12 UNK        -0.2522 
     17 C17        28.4405   -2.2620   -5.4434 C.3       12 UNK        -0.0967 
     18 CA         27.6982   -1.6234   -6.6433 C.3       5 UNK         0.0660 
     19 N          26.2388   -1.7537   -6.5540 N.am      5 UNK        -0.4015 
     20 C          25.3875   -1.4693   -7.5517 C.2       4 UNK         0.4946 
     21 O          25.7430   -1.1069   -8.6723 O.2       4 UNK        -0.5353 
     22 CA         23.8833   -1.5707   -7.2430 C.3       4 UNK         0.0277 
     23 CB         23.4065   -3.0282   -7.3485 C.3       4 UNK        -0.1981 
     24 N          23.5271   -1.0301   -5.9291 N.am      4 UNK        -0.4209 
     25 C          23.6701    0.2537   -5.5675 C.2       3 UNK         0.4942 
     26 O          24.0658    1.1376   -6.3241 O.2       3 UNK        -0.5208 
     27 CA         23.3758    0.6072   -4.0985 C.3       3 UNK         0.0250 
     28 CB         21.9021    1.0077   -3.9273 C.3       3 UNK        -0.1990 
     29 N          23.7093   -0.4614   -3.1495 N.am      3 UNK        -0.4232 
     30 C          24.9174   -1.0272   -3.0260 C.2       2 UNK         0.4993 
     31 O          25.8990   -0.7112   -3.7104 O.2       2 UNK        -0.5286 
     32 CA         25.0298   -2.1739   -2.0146 C.3       2 UNK         0.0209 
     33 CB         24.2007   -3.3957   -2.4582 C.3       2 UNK        -0.1931 
     34 N          26.4346   -2.5403   -1.9292 N.am      2 UNK        -0.4546 
     35 C          27.0461   -3.1970   -0.9403 C.2       1 UNK         0.5154 
     36 O          26.4687   -3.6111    0.0670 O.2       1 UNK        -0.5181 
     37 C          28.1059   -0.1448   -6.7775 C.2       5 UNK         0.5014 
     38 O          28.9615    0.1810   -7.6036 O.2       5 UNK        -0.5248 
     39 N          27.4642    0.7160   -5.9718 N.am      6 UNK        -0.4434 
     40 CA         27.6583    2.1645   -5.9820 C.3       6 UNK         0.0363 
     41 CB         26.8801    2.8088   -4.8242 C.3       6 UNK        -0.1936 
     42 C          27.2845    2.7963   -7.3324 C.2       6 UNK         0.5081 
     43 O          28.0994    3.5175   -7.9113 O.2       6 UNK        -0.5248 
     44 N          26.0773    2.4777   -7.8206 N.am      7 UNK        -0.4718 
     45 CA         25.5287    2.9550   -9.0914 C.3       7 UNK         0.0273 
     46 CB         24.0443    2.5678   -9.1858 C.3       7 UNK        -0.1935 
     47 C          26.2878    2.4533  -10.3297 C.2       7 UNK         0.5018 
     48 O          26.2981    3.1612  -11.3376 O.2       7 UNK        -0.5186 
     49 N          26.8974    1.2600  -10.2451 N.am      8 UNK        -0.4240 
     50 CA         27.7275    0.6806  -11.3024 C.3       8 UNK         0.0235 
     51 CB         28.0856   -0.7791  -10.9730 C.3       8 UNK        -0.2000 
     52 C          28.9829    1.5225  -11.5752 C.2       8 UNK         0.4941 
     53 O          29.1225    2.0399  -12.6845 O.2       8 UNK        -0.5273 
     54 N          29.8521    1.6599  -10.5633 N.am      9 UNK        -0.4262 
     55 CA         31.0953    2.4344  -10.6288 C.3       9 UNK         0.0264 
     56 CB         32.0669    1.8542  -11.6885 C.3       9 UNK        -0.1955 
     57 C          31.7524    2.5064   -9.2425 C.2       9 UNK         0.5031 
     58 O          32.9192    2.1240   -9.1130 O.2       9 UNK        -0.5390 
     59 N          31.0023    2.9461   -8.2181 N.am      10 UNK        -0.4204 
     60 CA         31.3964    3.0915   -6.8021 C.3       10 UNK         0.0237 
     61 CB         32.5561    4.0935   -6.6317 C.3       10 UNK        -0.1985 
     62 C          31.7001    1.7595   -6.0852 C.2       10 UNK         0.4970 
     63 O          31.1354    1.4939   -5.0249 O.2       10 UNK        -0.4914 
     64 N          32.5728    0.9542   -6.6894 N.am      11 UNK        -0.4285 
     65 CA         32.9086   -0.4252   -6.3354 C.3       11 UNK         0.1007 
     66 C          33.0265   -1.3364   -7.5950 C.2       11 UNK         0.5703 
     67 N          33.1445   -0.8052   -8.8090 N.am      11 UNK        -0.7361 
     68 O          32.9668   -2.5571   -7.4800 O.2       11 UNK        -0.4986 
     69 C69        34.1606   -0.4703   -5.4147 C.3       12 UNK        -0.0947 
     70 S70        34.4552   -2.0726   -4.5892 S.3       12 UNK        -0.2240 
     71 C71        33.2638   -2.0016   -3.2144 C.3       12 UNK         0.0194 
     72 H72        29.3763    0.8223   -2.4387 H         1 UNK         0.0906 
     73 H73        30.9425    0.3179   -1.7986 H         1 UNK         0.0906 
     74 H74        30.2763   -0.4631   -3.2349 H         1 UNK         0.0906 
     75 H75        29.6575   -2.5377   -2.7014 H         1 UNK         0.3140 
     76 H76        28.5648   -4.2088   -1.9079 H         1 UNK         0.1085 
     77 H77        30.3248   -3.4846    0.1571 H         1 UNK         0.0836 
     78 H78        28.8452   -3.6807    1.0288 H         1 UNK         0.0836 
     79 H79        31.9715   -5.6363   -0.0129 H         1 UNK         0.0731 
     80 H80        31.3986   -6.9746   -0.9756 H         1 UNK         0.0731 
     81 H81        32.8450   -3.7841   -1.1888 H         1 UNK         0.1312 
     82 H82        31.6014   -2.8886   -5.1873 H         1 UNK         0.1406 
     83 H83        29.8792   -6.2148   -3.1140 H         1 UNK         0.1631 
     84 H84        29.5682   -5.8909   -5.5955 H         1 UNK         0.0717 
     85 H85        30.1567   -4.4514   -6.3866 H         1 UNK         0.0717 
     86 H86        28.1888   -1.7465   -4.5163 H         1 UNK         0.0934 
     87 H87        29.5133   -2.1270   -5.5753 H         1 UNK         0.0934 
     88 H88        28.0201   -2.1352   -7.5531 H         1 UNK         0.0739 
     89 H89        25.8682   -1.9945   -5.6460 H         1 UNK         0.3093 
     90 H90        23.3543   -0.9831   -7.9967 H         1 UNK         0.0818 
     91 H91        22.3261   -3.1025   -7.2233 H         1 UNK         0.0819 
     92 H92        23.6462   -3.4457   -8.3276 H         1 UNK         0.0819 
     93 H93        23.8770   -3.6659   -6.5989 H         1 UNK         0.0819 
     94 H94        23.1834   -1.6839   -5.2415 H         1 UNK         0.3041 
     95 H95        23.9941    1.4696   -3.8428 H         1 UNK         0.0784 
     96 H96        21.6365    1.8168   -4.6097 H         1 UNK         0.0793 
     97 H97        21.2289    0.1744   -4.1325 H         1 UNK         0.0793 
     98 H98        21.7012    1.3620   -2.9160 H         1 UNK         0.0793 
     99 H99        22.9593   -0.7824   -2.5537 H         1 UNK         0.3024 
    100 H100       24.6897   -1.8161   -1.0402 H         1 UNK         0.1171 
    101 H101       23.1384   -3.1576   -2.5202 H         1 UNK         0.0786 
    102 H102       24.2992   -4.2196   -1.7511 H         1 UNK         0.0786 
    103 H103       24.5143   -3.7608   -3.4372 H         1 UNK         0.0786 
    104 H104       26.9928   -2.1611   -2.6838 H         1 UNK         0.2977 
    105 H105       26.7903    0.3471   -5.3087 H         1 UNK         0.3127 
    106 H106       28.7165    2.3444   -5.8064 H         1 UNK         0.0770 
    107 H107       25.8038    2.6814   -4.9355 H         1 UNK         0.0814 
    108 H108       27.0761    3.8806   -4.7756 H         1 UNK         0.0814 
    109 H109       27.1708    2.3816   -3.8642 H         1 UNK         0.0814 
    110 H110       25.4601    1.8920   -7.2596 H         1 UNK         0.2983 
    111 H111       25.5983    4.0449   -9.0898 H         1 UNK         0.0947 
    112 H112       23.6019    2.9296  -10.1149 H         1 UNK         0.0806 
    113 H113       23.4696    2.9970   -8.3649 H         1 UNK         0.0806 
    114 H114       23.9102    1.4854   -9.1581 H         1 UNK         0.0806 
    115 H115       26.7772    0.7108   -9.4021 H         1 UNK         0.3000 
    116 H116       27.1336    0.6744  -12.2190 H         1 UNK         0.0850 
    117 H117       28.7388   -1.2031  -11.7369 H         1 UNK         0.0810 
    118 H118       27.1927   -1.4030  -10.9327 H         1 UNK         0.0810 
    119 H119       28.5987   -0.8726  -10.0163 H         1 UNK         0.0810 
    120 H120       29.6473    1.2082   -9.6782 H         1 UNK         0.3040 
    121 H121       30.8452    3.4584  -10.9129 H         1 UNK         0.0766 
    122 H122       33.0144    2.3950  -11.6925 H         1 UNK         0.0812 
    123 H123       31.6705    1.9289  -12.7001 H         1 UNK         0.0812 
    124 H124       32.2902    0.8047  -11.4943 H         1 UNK         0.0812 
    125 H125       30.0314    3.1894   -8.4017 H         1 UNK         0.3205 
    126 H126       30.5347    3.5324   -6.3017 H         1 UNK         0.0754 
    127 H127       32.7688    4.2632   -5.5753 H         1 UNK         0.0769 
    128 H128       32.3102    5.0602   -7.0712 H         1 UNK         0.0769 
    129 H129       33.4794    3.7421   -7.0930 H         1 UNK         0.0769 
    130 H130       32.9490    1.2918   -7.5726 H         1 UNK         0.2981 
    131 H131       32.0603   -0.8156   -5.7738 H         1 UNK         0.0541 
    132 H132       33.1825    0.1951   -8.9619 H         1 UNK         0.3459 
    133 H133       33.2043   -1.4287   -9.5978 H         1 UNK         0.3459 
    134 H134       35.0538   -0.2132   -5.9865 H         1 UNK         0.0612 
    135 H135       34.0814    0.2921   -4.6379 H         1 UNK         0.0612 
    136 H136       33.8211   -1.9243   -2.2798 H         1 UNK         0.0624 
    137 H137       32.6592   -1.0974   -3.2849 H         1 UNK         0.0624 
@<TRIPOS>BOND
     1    1    2 1    
     2    1   72 1    
     3    1   73 1    
     4    1   74 1    
     5    2    3 2    
     6    2    4 am   BACKBONE|DICT|INTERRES
     7    4    5 1    
     8    4   75 1    
     9    5    6 1    
    10    5   35 1    
    11    5   76 1    
    12    6    7 1    
    13    6   77 1    
    14    6   78 1    
    15    7    8 1    
    16    8    9 1    
    17    8   79 1    
    18    8   80 1    
    19    9   10 ar   
    20    9   14 ar   
    21   10   11 ar   
    22   10   81 1    
    23   11   12 ar   
    24   11   71 1    
    25   12   13 ar   
    26   12   82 1    
    27   13   14 ar   
    28   13   15 1    
    29   14   83 1    
    30   15   16 1    
    31   15   84 1    
    32   15   85 1    
    33   16   17 1    
    34   17   18 1    
    35   17   86 1    
    36   17   87 1    
    37   18   19 1    
    38   18   37 1    
    39   18   88 1    
    40   19   20 am   BACKBONE|DICT|INTERRES
    41   19   89 1    
    42   20   21 2    
    43   20   22 1    
    44   22   23 1    
    45   22   24 1    
    46   22   90 1    
    47   23   91 1    
    48   23   92 1    
    49   23   93 1    
    50   24   25 am   BACKBONE|DICT|INTERRES
    51   24   94 1    
    52   25   26 2    
    53   25   27 1    
    54   27   28 1    
    55   27   29 1    
    56   27   95 1    
    57   28   96 1    
    58   28   97 1    
    59   28   98 1    
    60   29   30 am   BACKBONE|DICT|INTERRES
    61   29   99 1    
    62   30   31 2    
    63   30   32 1    
    64   32   33 1    
    65   32   34 1    
    66   32  100 1    
    67   33  101 1    
    68   33  102 1    
    69   33  103 1    
    70   34   35 am   BACKBONE|DICT|INTERRES
    71   34  104 1    
    72   35   36 2    
    73   37   38 2    
    74   37   39 am   BACKBONE|DICT|INTERRES
    75   39   40 1    
    76   39  105 1    
    77   40   41 1    
    78   40   42 1    
    79   40  106 1    
    80   41  107 1    
    81   41  108 1    
    82   41  109 1    
    83   42   43 2    
    84   42   44 am   BACKBONE|DICT|INTERRES
    85   44   45 1    
    86   44  110 1    
    87   45   46 1    
    88   45   47 1    
    89   45  111 1    
    90   46  112 1    
    91   46  113 1    
    92   46  114 1    
    93   47   48 2    
    94   47   49 am   BACKBONE|DICT|INTERRES
    95   49   50 1    
    96   49  115 1    
    97   50   51 1    
    98   50   52 1    
    99   50  116 1    
   100   51  117 1    
   101   51  118 1    
   102   51  119 1    
   103   52   53 2    
   104   52   54 am   BACKBONE|DICT|INTERRES
   105   54   55 1    
   106   54  120 1    
   107   55   56 1    
   108   55   57 1    
   109   55  121 1    
   110   56  122 1    
   111   56  123 1    
   112   56  124 1    
   113   57   58 2    
   114   57   59 am   BACKBONE|DICT|INTERRES
   115   59   60 1    
   116   59  125 1    
   117   60   61 1    
   118   60   62 1    
   119   60  126 1    
   120   61  127 1    
   121   61  128 1    
   122   61  129 1    
   123   62   63 2    
   124   62   64 am   BACKBONE|DICT|INTERRES
   125   64   65 1    
   126   64  130 1    
   127   65   66 1    
   128   65   69 1    
   129   65  131 1    
   130   66   67 am   BACKBONE|DICT|INTERRES
   131   66   68 2    
   132   67  132 1    
   133   67  133 1    
   134   69   70 1    
   135   69  134 1    
   136   69  135 1    
   137   70   71 1    
   138   71  136 1    
   139   71  137 1    
@<TRIPOS>SUBSTRUCTURE
     1 UNK         1 GROUP             0       ****    0 ROOT    
