@<TRIPOS>MOLECULE
3R137
137   139    1
SMALL
USER_CHARGES


@<TRIPOS>ATOM
      1 CA         24.6609   -6.0755   -0.5901 C.3       0 UNK        -0.2020 
      2 C          25.5832   -4.8872   -0.8158 C.2       0 UNK         0.4855 
      3 O          25.6034   -3.9640   -0.0023 O.2       0 UNK        -0.5197 
      4 N          26.3409   -4.8966   -1.9201 N.am      1 UNK        -0.4892 
      5 CA         27.3112   -3.8533   -2.2812 C.3       1 UNK         0.0835 
      6 C6         28.4502   -4.4066   -3.1776 C.3       12 UNK        -0.0855 
      7 S7         29.4578   -5.7046   -2.3785 S.3       12 UNK        -0.2931 
      8 C8         30.3786   -4.7981   -1.0848 C.3       12 UNK         0.0378 
      9 C9         31.0273   -3.5172   -1.5951 C.ar      12 UNK        -0.0802 
     10 C10        32.1751   -3.5673   -2.3883 C.ar      12 UNK        -0.0944 
     11 C11        32.7514   -2.3904   -2.8749 C.ar      12 UNK        -0.0787 
     12 C12        32.1699   -1.1565   -2.5611 C.ar      12 UNK        -0.0862 
     13 C13        31.0102   -1.0862   -1.7788 C.ar      12 UNK        -0.0733 
     14 C14        30.4649   -2.2775   -1.2805 C.ar      12 UNK        -0.0832 
     15 C15        30.3768    0.2863   -1.5151 C.3       12 UNK         0.0240 
     16 S16        28.6901    0.2314   -0.7899 S.3       12 UNK        -0.2522 
     17 C17        27.6034    1.4081   -1.6821 C.3       12 UNK        -0.0967 
     18 CA         28.0290    1.9265   -3.0792 C.3       5 UNK         0.0660 
     19 N          28.2524    0.8429   -4.0398 N.am      5 UNK        -0.4015 
     20 C          28.9007    0.9957   -5.2029 C.2       4 UNK         0.4946 
     21 O          29.2768    2.0838   -5.6359 O.2       4 UNK        -0.5353 
     22 CA         29.1950   -0.2705   -6.0145 C.3       4 UNK         0.0277 
     23 CB         30.3052   -1.0867   -5.3400 C.3       4 UNK        -0.1981 
     24 N          28.0022   -1.0988   -6.1501 N.am      4 UNK        -0.4209 
     25 C          27.2936   -1.2389   -7.2767 C.2       3 UNK         0.4942 
     26 O          27.6109   -0.7292   -8.3512 O.2       3 UNK        -0.5208 
     27 CA         26.0186   -2.1000   -7.2115 C.3       3 UNK         0.0250 
     28 CB         26.3213   -3.5163   -7.7257 C.3       3 UNK        -0.1990 
     29 N          25.4192   -2.1877   -5.8776 N.am      3 UNK        -0.4232 
     30 C          25.0022   -1.1504   -5.1365 C.2       2 UNK         0.4993 
     31 O          25.0270    0.0222   -5.5142 O.2       2 UNK        -0.5286 
     32 CA         24.5777   -1.4718   -3.6930 C.3       2 UNK         0.0209 
     33 CB         23.0728   -1.7726   -3.6277 C.3       2 UNK        -0.1931 
     34 N          25.3321   -2.5809   -3.0880 N.am      2 UNK        -0.4546 
     35 C          26.6661   -2.6114   -2.9359 C.2       1 UNK         0.5154 
     36 O          27.3973   -1.7051   -3.3382 O.2       1 UNK        -0.5181 
     37 C          27.0107    2.9730   -3.5774 C.2       5 UNK         0.5014 
     38 O          27.1775    4.1515   -3.2573 O.2       5 UNK        -0.5248 
     39 N          25.9740    2.5422   -4.3122 N.am      6 UNK        -0.4434 
     40 CA         24.8961    3.4113   -4.7880 C.3       6 UNK         0.0363 
     41 CB         23.5335    2.8478   -4.3460 C.3       6 UNK        -0.1936 
     42 C          24.9548    3.5861   -6.3092 C.2       6 UNK         0.5081 
     43 O          24.9573    4.7231   -6.7818 O.2       6 UNK        -0.5248 
     44 N          24.9851    2.4716   -7.0538 N.am      7 UNK        -0.4718 
     45 CA         24.9266    2.4853   -8.5203 C.3       7 UNK         0.0273 
     46 CB         24.4431    1.1202   -9.0305 C.3       7 UNK        -0.1935 
     47 C          26.2591    2.8613   -9.1892 C.2       7 UNK         0.5018 
     48 O          26.2346    3.3988  -10.2970 O.2       7 UNK        -0.5186 
     49 N          27.3833    2.5571   -8.5210 N.am      8 UNK        -0.4240 
     50 CA         28.7679    2.7527   -8.9783 C.3       8 UNK         0.0235 
     51 CB         29.1147    4.2557   -9.0325 C.3       8 UNK        -0.2000 
     52 C          29.1026    2.0095  -10.2899 C.2       8 UNK         0.4941 
     53 O          29.9186    2.4898  -11.0792 O.2       8 UNK        -0.5273 
     54 N          28.4671    0.8497  -10.4968 N.am      9 UNK        -0.4262 
     55 CA         28.7033   -0.0514  -11.6226 C.3       9 UNK         0.0264 
     56 CB         27.3973   -0.7891  -11.9625 C.3       9 UNK        -0.1955 
     57 C          29.8228   -1.0503  -11.2963 C.2       9 UNK         0.5031 
     58 O          30.6573   -1.3271  -12.1595 O.2       9 UNK        -0.5390 
     59 N          29.8229   -1.5636  -10.0596 N.am      10 UNK        -0.4204 
     60 CA         30.8702   -2.4228   -9.5101 C.3       10 UNK         0.0237 
     61 CB         30.2228   -3.4447   -8.5589 C.3       10 UNK        -0.1985 
     62 C          31.9337   -1.5804   -8.7854 C.2       10 UNK         0.4970 
     63 O          31.6761   -0.4239   -8.4424 O.2       10 UNK        -0.4914 
     64 N          33.1005   -2.1940   -8.5494 N.am      11 UNK        -0.4285 
     65 CA         34.2728   -1.6014   -7.8795 C.3       11 UNK         0.1007 
     66 C          34.8597   -0.3765   -8.6505 C.2       11 UNK         0.5703 
     67 N          35.5447    0.5452   -7.9850 N.am      11 UNK        -0.7361 
     68 O          34.7541   -0.2849   -9.8729 O.2       11 UNK        -0.4986 
     69 C69        34.0393   -1.3561   -6.3563 C.3       12 UNK        -0.0947 
     70 S70        33.5894   -2.8854   -5.4664 S.3       12 UNK        -0.2240 
     71 C71        33.9999   -2.4635   -3.7415 C.3       12 UNK         0.0194 
     72 H72        23.6248   -5.7423   -0.5358 H         1 UNK         0.0906 
     73 H73        24.7392   -6.8116   -1.3901 H         1 UNK         0.0906 
     74 H74        24.9094   -6.5691    0.3491 H         1 UNK         0.0906 
     75 H75        26.2967   -5.6878   -2.5477 H         1 UNK         0.3140 
     76 H76        27.7612   -3.4835   -1.3594 H         1 UNK         0.1085 
     77 H77        29.1258   -3.6144   -3.5038 H         1 UNK         0.0836 
     78 H78        28.0345   -4.8242   -4.0964 H         1 UNK         0.0836 
     79 H79        31.1489   -5.4548   -0.6777 H         1 UNK         0.0731 
     80 H80        29.7023   -4.5825   -0.2562 H         1 UNK         0.0731 
     81 H81        32.6118   -4.5245   -2.6393 H         1 UNK         0.1312 
     82 H82        32.6097   -0.2475   -2.9483 H         1 UNK         0.1406 
     83 H83        29.5852   -2.2552   -0.6562 H         1 UNK         0.1631 
     84 H84        30.3894    0.8492   -2.4442 H         1 UNK         0.0717 
     85 H85        31.0197    0.8348   -0.8260 H         1 UNK         0.0717 
     86 H86        26.6244    0.9297   -1.7530 H         1 UNK         0.0934 
     87 H87        27.4611    2.2557   -1.0081 H         1 UNK         0.0934 
     88 H88        28.9706    2.4663   -2.9632 H         1 UNK         0.0739 
     89 H89        27.9843   -0.0919   -3.7329 H         1 UNK         0.3093 
     90 H90        29.5562    0.0458   -6.9943 H         1 UNK         0.0818 
     91 H91        29.9808   -1.5035   -4.3874 H         1 UNK         0.0819 
     92 H92        30.6365   -1.9139   -5.9641 H         1 UNK         0.0819 
     93 H93        31.1780   -0.4637   -5.1480 H         1 UNK         0.0819 
     94 H94        27.6557   -1.5262   -5.2982 H         1 UNK         0.3041 
     95 H95        25.2765   -1.6515   -7.8718 H         1 UNK         0.0784 
     96 H96        26.7422   -3.4843   -8.7321 H         1 UNK         0.0793 
     97 H97        27.0408   -4.0331   -7.0891 H         1 UNK         0.0793 
     98 H98        25.4174   -4.1236   -7.7753 H         1 UNK         0.0793 
     99 H99        25.3586   -3.1090   -5.4697 H         1 UNK         0.3024 
    100 H100       24.7743   -0.5785   -3.0962 H         1 UNK         0.1171 
    101 H101       22.7385   -1.9020   -2.5981 H         1 UNK         0.0786 
    102 H102       22.4924   -0.9524   -4.0535 H         1 UNK         0.0786 
    103 H103       22.8154   -2.6765   -4.1813 H         1 UNK         0.0786 
    104 H104       24.7997   -3.3607   -2.7299 H         1 UNK         0.2977 
    105 H105       25.9115    1.5647   -4.5774 H         1 UNK         0.3127 
    106 H106       24.9850    4.4074   -4.3490 H         1 UNK         0.0770 
    107 H107       23.3385    1.8584   -4.7590 H         1 UNK         0.0814 
    108 H108       22.7214    3.4991   -4.6716 H         1 UNK         0.0814 
    109 H109       23.4718    2.7731   -3.2604 H         1 UNK         0.0814 
    110 H110       24.9638    1.5657   -6.5898 H         1 UNK         0.2983 
    111 H111       24.1885    3.2318   -8.8236 H         1 UNK         0.0947 
    112 H112       24.2453    1.1562  -10.1027 H         1 UNK         0.0806 
    113 H113       23.5213    0.8084   -8.5390 H         1 UNK         0.0806 
    114 H114       25.1925    0.3486   -8.8708 H         1 UNK         0.0806 
    115 H115       27.2801    2.1178   -7.6173 H         1 UNK         0.3000 
    116 H116       29.4083    2.2984   -8.2224 H         1 UNK         0.0850 
    117 H117       30.1751    4.4062   -9.2385 H         1 UNK         0.0810 
    118 H118       28.8989    4.7445   -8.0824 H         1 UNK         0.0810 
    119 H119       28.5545    4.7724   -9.8123 H         1 UNK         0.0810 
    120 H120       27.8774    0.4901   -9.7504 H         1 UNK         0.3040 
    121 H121       29.0059    0.5280  -12.4976 H         1 UNK         0.0766 
    122 H122       26.6091   -0.0884  -12.2385 H         1 UNK         0.0812 
    123 H123       27.0356   -1.3842  -11.1227 H         1 UNK         0.0812 
    124 H124       27.5403   -1.4660  -12.8059 H         1 UNK         0.0812 
    125 H125       29.1150   -1.2397   -9.4062 H         1 UNK         0.3205 
    126 H126       31.3609   -2.9687  -10.3189 H         1 UNK         0.0754 
    127 H127       30.9717   -4.0876   -8.0945 H         1 UNK         0.0769 
    128 H128       29.5283   -4.0928   -9.0938 H         1 UNK         0.0769 
    129 H129       29.6680   -2.9597   -7.7575 H         1 UNK         0.0769 
    130 H130       33.2270   -3.1388   -8.8805 H         1 UNK         0.2981 
    131 H131       35.0532   -2.3586   -7.9615 H         1 UNK         0.0541 
    132 H132       35.6677    0.4851   -6.9869 H         1 UNK         0.3459 
    133 H133       35.9408    1.3202   -8.4934 H         1 UNK         0.3459 
    134 H134       33.2657   -0.6051   -6.1959 H         1 UNK         0.0612 
    135 H135       34.9486   -0.9694   -5.8952 H         1 UNK         0.0612 
    136 H136       34.5511   -1.5237   -3.6926 H         1 UNK         0.0624 
    137 H137       34.6720   -3.2270   -3.3472 H         1 UNK         0.0624 
@<TRIPOS>BOND
     1    1    2 1    
     2    1   72 1    
     3    1   73 1    
     4    1   74 1    
     5    2    3 2    
     6    2    4 am   BACKBONE|DICT|INTERRES
     7    4    5 1    
     8    4   75 1    
     9    5    6 1    
    10    5   35 1    
    11    5   76 1    
    12    6    7 1    
    13    6   77 1    
    14    6   78 1    
    15    7    8 1    
    16    8    9 1    
    17    8   79 1    
    18    8   80 1    
    19    9   10 ar   
    20    9   14 ar   
    21   10   11 ar   
    22   10   81 1    
    23   11   12 ar   
    24   11   71 1    
    25   12   13 ar   
    26   12   82 1    
    27   13   14 ar   
    28   13   15 1    
    29   14   83 1    
    30   15   16 1    
    31   15   84 1    
    32   15   85 1    
    33   16   17 1    
    34   17   18 1    
    35   17   86 1    
    36   17   87 1    
    37   18   19 1    
    38   18   37 1    
    39   18   88 1    
    40   19   20 am   BACKBONE|DICT|INTERRES
    41   19   89 1    
    42   20   21 2    
    43   20   22 1    
    44   22   23 1    
    45   22   24 1    
    46   22   90 1    
    47   23   91 1    
    48   23   92 1    
    49   23   93 1    
    50   24   25 am   BACKBONE|DICT|INTERRES
    51   24   94 1    
    52   25   26 2    
    53   25   27 1    
    54   27   28 1    
    55   27   29 1    
    56   27   95 1    
    57   28   96 1    
    58   28   97 1    
    59   28   98 1    
    60   29   30 am   BACKBONE|DICT|INTERRES
    61   29   99 1    
    62   30   31 2    
    63   30   32 1    
    64   32   33 1    
    65   32   34 1    
    66   32  100 1    
    67   33  101 1    
    68   33  102 1    
    69   33  103 1    
    70   34   35 am   BACKBONE|DICT|INTERRES
    71   34  104 1    
    72   35   36 2    
    73   37   38 2    
    74   37   39 am   BACKBONE|DICT|INTERRES
    75   39   40 1    
    76   39  105 1    
    77   40   41 1    
    78   40   42 1    
    79   40  106 1    
    80   41  107 1    
    81   41  108 1    
    82   41  109 1    
    83   42   43 2    
    84   42   44 am   BACKBONE|DICT|INTERRES
    85   44   45 1    
    86   44  110 1    
    87   45   46 1    
    88   45   47 1    
    89   45  111 1    
    90   46  112 1    
    91   46  113 1    
    92   46  114 1    
    93   47   48 2    
    94   47   49 am   BACKBONE|DICT|INTERRES
    95   49   50 1    
    96   49  115 1    
    97   50   51 1    
    98   50   52 1    
    99   50  116 1    
   100   51  117 1    
   101   51  118 1    
   102   51  119 1    
   103   52   53 2    
   104   52   54 am   BACKBONE|DICT|INTERRES
   105   54   55 1    
   106   54  120 1    
   107   55   56 1    
   108   55   57 1    
   109   55  121 1    
   110   56  122 1    
   111   56  123 1    
   112   56  124 1    
   113   57   58 2    
   114   57   59 am   BACKBONE|DICT|INTERRES
   115   59   60 1    
   116   59  125 1    
   117   60   61 1    
   118   60   62 1    
   119   60  126 1    
   120   61  127 1    
   121   61  128 1    
   122   61  129 1    
   123   62   63 2    
   124   62   64 am   BACKBONE|DICT|INTERRES
   125   64   65 1    
   126   64  130 1    
   127   65   66 1    
   128   65   69 1    
   129   65  131 1    
   130   66   67 am   BACKBONE|DICT|INTERRES
   131   66   68 2    
   132   67  132 1    
   133   67  133 1    
   134   69   70 1    
   135   69  134 1    
   136   69  135 1    
   137   70   71 1    
   138   71  136 1    
   139   71  137 1    
@<TRIPOS>SUBSTRUCTURE
     1 UNK         1 GROUP             0       ****    0 ROOT    
