@<TRIPOS>MOLECULE
3R137
137   139    1
SMALL
USER_CHARGES


@<TRIPOS>ATOM
      1 CA         23.9837   -1.9641   -8.6614 C.3       0 UNK        -0.2020 
      2 C          23.6220   -2.9360   -7.5491 C.2       0 UNK         0.4855 
      3 O          22.4679   -3.3548   -7.4517 O.2       0 UNK        -0.5197 
      4 N          24.6019   -3.3050   -6.7161 N.am      1 UNK        -0.4892 
      5 CA         24.4211   -4.1486   -5.5316 C.3       1 UNK         0.0835 
      6 C6         25.7673   -4.7696   -5.0742 C.3       12 UNK        -0.0855 
      7 S7         27.0578   -3.5460   -4.6491 S.3       12 UNK        -0.2931 
      8 C8         28.4748   -4.6567   -4.3860 C.3       12 UNK         0.0378 
      9 C9         29.7559   -3.8621   -4.1955 C.ar      12 UNK        -0.0802 
     10 C10        30.7192   -3.8130   -5.2076 C.ar      12 UNK        -0.0944 
     11 C11        31.8811   -3.0516   -5.0448 C.ar      12 UNK        -0.0787 
     12 C12        32.0689   -2.3236   -3.8672 C.ar      12 UNK        -0.0862 
     13 C13        31.1045   -2.3556   -2.8557 C.ar      12 UNK        -0.0733 
     14 C14        29.9652   -3.1502   -3.0123 C.ar      12 UNK        -0.0832 
     15 C15        31.2543   -1.4787   -1.6234 C.3       12 UNK         0.0240 
     16 S16        29.9478   -0.2090   -1.5569 S.3       12 UNK        -0.2522 
     17 C17        30.2224    0.7060   -3.1155 C.3       12 UNK        -0.0967 
     18 CA         29.3068    0.2494   -4.2878 C.3       5 UNK         0.0660 
     19 N          27.8763    0.2079   -3.9537 N.am      5 UNK        -0.4015 
     20 C          27.0847    1.2177   -3.5617 C.2       4 UNK         0.4946 
     21 O          27.4427    2.3954   -3.5012 O.2       4 UNK        -0.5353 
     22 CA         25.6415    0.8532   -3.1748 C.3       4 UNK         0.0277 
     23 CB         24.7269    0.9220   -4.4071 C.3       4 UNK        -0.1981 
     24 N          25.5363   -0.4710   -2.5516 N.am      4 UNK        -0.4209 
     25 C          25.9861   -0.7554   -1.3175 C.2       3 UNK         0.4942 
     26 O          26.4579    0.0948   -0.5606 O.2       3 UNK        -0.5208 
     27 CA         25.9160   -2.2267   -0.8524 C.3       3 UNK         0.0250 
     28 CB         25.9391   -2.3761    0.6841 C.3       3 UNK        -0.1990 
     29 N          24.8010   -2.9795   -1.4367 N.am      3 UNK        -0.4232 
     30 C          23.4871   -2.7286   -1.3157 C.2       2 UNK         0.4993 
     31 O          23.0179   -1.8556   -0.5837 O.2       2 UNK        -0.5286 
     32 CA         22.5430   -3.5910   -2.1854 C.3       2 UNK         0.0209 
     33 CB         21.2224   -2.8623   -2.5164 C.3       2 UNK        -0.1931 
     34 N          23.1684   -4.1008   -3.4198 N.am      2 UNK        -0.4546 
     35 C          23.7423   -3.3671   -4.3874 C.2       1 UNK         0.5154 
     36 O          23.8185   -2.1363   -4.3540 O.2       1 UNK        -0.5181 
     37 C          29.6065    1.0399   -5.5784 C.2       5 UNK         0.5014 
     38 O          30.1238    0.4738   -6.5424 O.2       5 UNK        -0.5248 
     39 N          29.2578    2.3320   -5.6000 N.am      6 UNK        -0.4434 
     40 CA         29.4475    3.2285   -6.7419 C.3       6 UNK         0.0363 
     41 CB         29.0994    4.6685   -6.3370 C.3       6 UNK        -0.1936 
     42 C          28.6387    2.7933   -7.9740 C.2       6 UNK         0.5081 
     43 O          29.1623    2.8153   -9.0878 O.2       6 UNK        -0.5248 
     44 N          27.3964    2.3506   -7.7404 N.am      7 UNK        -0.4718 
     45 CA         26.4856    1.8520   -8.7730 C.3       7 UNK         0.0273 
     46 CB         25.0656    1.7617   -8.1907 C.3       7 UNK        -0.1935 
     47 C          26.9019    0.4977   -9.3759 C.2       7 UNK         0.5018 
     48 O          26.4110    0.1590  -10.4530 O.2       7 UNK        -0.5186 
     49 N          27.7633   -0.2611   -8.6794 N.am      8 UNK        -0.4240 
     50 CA         28.2648   -1.5562   -9.1388 C.3       8 UNK         0.0235 
     51 CB         28.8279   -2.3652   -7.9577 C.3       8 UNK        -0.2000 
     52 C          29.2999   -1.3885  -10.2594 C.2       8 UNK         0.4941 
     53 O          29.0805   -1.8973  -11.3597 O.2       8 UNK        -0.5273 
     54 N          30.3953   -0.6728   -9.9688 N.am      9 UNK        -0.4262 
     55 CA         31.4995   -0.4444  -10.9069 C.3       9 UNK         0.0264 
     56 CB         32.3086   -1.7469  -11.1148 C.3       9 UNK        -0.1955 
     57 C          32.3939    0.7301  -10.4729 C.2       9 UNK         0.5031 
     58 O          33.6106    0.6533  -10.6546 O.2       9 UNK        -0.5390 
     59 N          31.8013    1.7893   -9.8932 N.am      10 UNK        -0.4204 
     60 CA         32.4855    2.9789   -9.3527 C.3       10 UNK         0.0237 
     61 CB         33.1325    3.8060  -10.4852 C.3       10 UNK        -0.1985 
     62 C          33.4741    2.6572   -8.2089 C.2       10 UNK         0.4970 
     63 O          34.4473    3.3871   -8.0143 O.2       10 UNK        -0.4914 
     64 N          33.2046    1.5690   -7.4795 N.am      11 UNK        -0.4285 
     65 CA         34.0555    0.9826   -6.4349 C.3       11 UNK         0.1007 
     66 C          33.6223    1.3559   -4.9886 C.2       11 UNK         0.5703 
     67 N          32.8041    2.3836   -4.7923 N.am      11 UNK        -0.7361 
     68 O          34.0591    0.7346   -4.0233 O.2       11 UNK        -0.4986 
     69 C69        34.2738   -0.5420   -6.6722 C.3       12 UNK        -0.0947 
     70 S70        32.7722   -1.4817   -7.1321 S.3       12 UNK        -0.2240 
     71 C71        32.9253   -3.0033   -6.1478 C.3       12 UNK         0.0194 
     72 H72        23.4351   -1.0309   -8.5379 H         1 UNK         0.0906 
     73 H73        25.0480   -1.7352   -8.6671 H         1 UNK         0.0906 
     74 H74        23.7247   -2.3868   -9.6317 H         1 UNK         0.0906 
     75 H75        25.5233   -2.9033   -6.8106 H         1 UNK         0.3140 
     76 H76        23.7503   -4.9663   -5.8060 H         1 UNK         0.1085 
     77 H77        26.1522   -5.4067   -5.8724 H         1 UNK         0.0836 
     78 H78        25.6178   -5.4331   -4.2202 H         1 UNK         0.0836 
     79 H79        28.2928   -5.2802   -3.5094 H         1 UNK         0.0731 
     80 H80        28.5697   -5.3334   -5.2368 H         1 UNK         0.0731 
     81 H81        30.5605   -4.3584   -6.1277 H         1 UNK         0.1312 
     82 H82        32.9517   -1.7091   -3.7553 H         1 UNK         0.1406 
     83 H83        29.2132   -3.1678   -2.2353 H         1 UNK         0.1631 
     84 H84        32.2304   -0.9910   -1.6035 H         1 UNK         0.0717 
     85 H85        31.1972   -2.0989   -0.7279 H         1 UNK         0.0717 
     86 H86        30.0784    1.7666   -2.9030 H         1 UNK         0.0934 
     87 H87        31.2699    0.5936   -3.3936 H         1 UNK         0.0934 
     88 H88        29.5646   -0.7833   -4.5216 H         1 UNK         0.0739 
     89 H89        27.4651   -0.7143   -3.9836 H         1 UNK         0.3093 
     90 H90        25.2955    1.5970   -2.4537 H         1 UNK         0.0818 
     91 H91        23.6864    0.7396   -4.1374 H         1 UNK         0.0819 
     92 H92        24.7725    1.9056   -4.8765 H         1 UNK         0.0819 
     93 H93        25.0088    0.1830   -5.1578 H         1 UNK         0.0819 
     94 H94        25.0858   -1.1975   -3.1014 H         1 UNK         0.3041 
     95 H95        26.8236   -2.6949   -1.2365 H         1 UNK         0.0784 
     96 H96        26.8489   -1.9467    1.1055 H         1 UNK         0.0793 
     97 H97        25.0945   -1.8700    1.1526 H         1 UNK         0.0793 
     98 H98        25.9103   -3.4242    0.9818 H         1 UNK         0.0793 
     99 H99        25.0679   -3.7198   -2.0700 H         1 UNK         0.3024 
    100 H100       22.2955   -4.4632   -1.5778 H         1 UNK         0.1171 
    101 H101       20.5625   -3.4891   -3.1161 H         1 UNK         0.0786 
    102 H102       21.3988   -1.9377   -3.0674 H         1 UNK         0.0786 
    103 H103       20.6786   -2.6004   -1.6079 H         1 UNK         0.0786 
    104 H104       23.1719   -5.1076   -3.5169 H         1 UNK         0.2977 
    105 H105       28.7519    2.6903   -4.7916 H         1 UNK         0.3127 
    106 H106       30.5041    3.1960   -7.0068 H         1 UNK         0.0770 
    107 H107       28.0601    4.7601   -6.0187 H         1 UNK         0.0814 
    108 H108       29.2479    5.3553   -7.1715 H         1 UNK         0.0814 
    109 H109       29.7315    5.0133   -5.5185 H         1 UNK         0.0814 
    110 H110       27.0540    2.3628   -6.7909 H         1 UNK         0.2983 
    111 H111       26.4750    2.5777   -9.5896 H         1 UNK         0.0947 
    112 H112       24.3473    1.4794   -8.9618 H         1 UNK         0.0806 
    113 H113       24.7383    2.7178   -7.7819 H         1 UNK         0.0806 
    114 H114       25.0006    1.0143   -7.4005 H         1 UNK         0.0806 
    115 H115       28.1613    0.1099   -7.8277 H         1 UNK         0.3000 
    116 H116       27.4245   -2.1211   -9.5489 H         1 UNK         0.0850 
    117 H117       29.6904   -1.8862   -7.4955 H         1 UNK         0.0810 
    118 H118       28.0756   -2.5077   -7.1841 H         1 UNK         0.0810 
    119 H119       29.1478   -3.3556   -8.2834 H         1 UNK         0.0810 
    120 H120       30.5067   -0.3108   -9.0300 H         1 UNK         0.3040 
    121 H121       31.0725   -0.1527  -11.8687 H         1 UNK         0.0766 
    122 H122       33.1090   -1.6037  -11.8418 H         1 UNK         0.0812 
    123 H123       31.6870   -2.5584  -11.4916 H         1 UNK         0.0812 
    124 H124       32.7679   -2.0829  -10.1847 H         1 UNK         0.0812 
    125 H125       30.7886    1.8111   -9.8078 H         1 UNK         0.3205 
    126 H126       31.7119    3.6068   -8.9129 H         1 UNK         0.0754 
    127 H127       33.5023    4.7614  -10.1106 H         1 UNK         0.0769 
    128 H128       32.4138    4.0270  -11.2743 H         1 UNK         0.0769 
    129 H129       33.9782    3.2867  -10.9368 H         1 UNK         0.0769 
    130 H130       32.3599    1.0479   -7.6680 H         1 UNK         0.2981 
    131 H131       35.0463    1.4322   -6.5171 H         1 UNK         0.0541 
    132 H132       32.4756    2.9273   -5.5720 H         1 UNK         0.3459 
    133 H133       32.5665    2.6494   -3.8508 H         1 UNK         0.3459 
    134 H134       34.7655   -1.0037   -5.8152 H         1 UNK         0.0612 
    135 H135       34.9734   -0.6659   -7.5001 H         1 UNK         0.0612 
    136 H136       32.8047   -3.8566   -6.8168 H         1 UNK         0.0624 
    137 H137       33.9244   -3.0977   -5.7215 H         1 UNK         0.0624 
@<TRIPOS>BOND
     1    1    2 1    
     2    1   72 1    
     3    1   73 1    
     4    1   74 1    
     5    2    3 2    
     6    2    4 am   BACKBONE|DICT|INTERRES
     7    4    5 1    
     8    4   75 1    
     9    5    6 1    
    10    5   35 1    
    11    5   76 1    
    12    6    7 1    
    13    6   77 1    
    14    6   78 1    
    15    7    8 1    
    16    8    9 1    
    17    8   79 1    
    18    8   80 1    
    19    9   10 ar   
    20    9   14 ar   
    21   10   11 ar   
    22   10   81 1    
    23   11   12 ar   
    24   11   71 1    
    25   12   13 ar   
    26   12   82 1    
    27   13   14 ar   
    28   13   15 1    
    29   14   83 1    
    30   15   16 1    
    31   15   84 1    
    32   15   85 1    
    33   16   17 1    
    34   17   18 1    
    35   17   86 1    
    36   17   87 1    
    37   18   19 1    
    38   18   37 1    
    39   18   88 1    
    40   19   20 am   BACKBONE|DICT|INTERRES
    41   19   89 1    
    42   20   21 2    
    43   20   22 1    
    44   22   23 1    
    45   22   24 1    
    46   22   90 1    
    47   23   91 1    
    48   23   92 1    
    49   23   93 1    
    50   24   25 am   BACKBONE|DICT|INTERRES
    51   24   94 1    
    52   25   26 2    
    53   25   27 1    
    54   27   28 1    
    55   27   29 1    
    56   27   95 1    
    57   28   96 1    
    58   28   97 1    
    59   28   98 1    
    60   29   30 am   BACKBONE|DICT|INTERRES
    61   29   99 1    
    62   30   31 2    
    63   30   32 1    
    64   32   33 1    
    65   32   34 1    
    66   32  100 1    
    67   33  101 1    
    68   33  102 1    
    69   33  103 1    
    70   34   35 am   BACKBONE|DICT|INTERRES
    71   34  104 1    
    72   35   36 2    
    73   37   38 2    
    74   37   39 am   BACKBONE|DICT|INTERRES
    75   39   40 1    
    76   39  105 1    
    77   40   41 1    
    78   40   42 1    
    79   40  106 1    
    80   41  107 1    
    81   41  108 1    
    82   41  109 1    
    83   42   43 2    
    84   42   44 am   BACKBONE|DICT|INTERRES
    85   44   45 1    
    86   44  110 1    
    87   45   46 1    
    88   45   47 1    
    89   45  111 1    
    90   46  112 1    
    91   46  113 1    
    92   46  114 1    
    93   47   48 2    
    94   47   49 am   BACKBONE|DICT|INTERRES
    95   49   50 1    
    96   49  115 1    
    97   50   51 1    
    98   50   52 1    
    99   50  116 1    
   100   51  117 1    
   101   51  118 1    
   102   51  119 1    
   103   52   53 2    
   104   52   54 am   BACKBONE|DICT|INTERRES
   105   54   55 1    
   106   54  120 1    
   107   55   56 1    
   108   55   57 1    
   109   55  121 1    
   110   56  122 1    
   111   56  123 1    
   112   56  124 1    
   113   57   58 2    
   114   57   59 am   BACKBONE|DICT|INTERRES
   115   59   60 1    
   116   59  125 1    
   117   60   61 1    
   118   60   62 1    
   119   60  126 1    
   120   61  127 1    
   121   61  128 1    
   122   61  129 1    
   123   62   63 2    
   124   62   64 am   BACKBONE|DICT|INTERRES
   125   64   65 1    
   126   64  130 1    
   127   65   66 1    
   128   65   69 1    
   129   65  131 1    
   130   66   67 am   BACKBONE|DICT|INTERRES
   131   66   68 2    
   132   67  132 1    
   133   67  133 1    
   134   69   70 1    
   135   69  134 1    
   136   69  135 1    
   137   70   71 1    
   138   71  136 1    
   139   71  137 1    
@<TRIPOS>SUBSTRUCTURE
     1 UNK         1 GROUP             0       ****    0 ROOT    
