@<TRIPOS>MOLECULE
3R137
137   139    1
SMALL
USER_CHARGES


@<TRIPOS>ATOM
      1 CA         27.7135   -5.0072   -9.0071 C.3       0 UNK        -0.2020 
      2 C          27.2045   -5.2464   -7.5936 C.2       0 UNK         0.4855 
      3 O          26.3951   -6.1495   -7.3800 O.2       0 UNK        -0.5197 
      4 N          27.6863   -4.4588   -6.6253 N.am      1 UNK        -0.4892 
      5 CA         27.3125   -4.5560   -5.2120 C.3       1 UNK         0.0835 
      6 C6         28.3272   -3.8302   -4.3012 C.3       12 UNK        -0.0855 
      7 S7         29.9531   -4.6548   -4.2755 S.3       12 UNK        -0.2931 
      8 C8         30.4760   -4.3649   -2.5543 C.3       12 UNK         0.0378 
      9 C9         30.6075   -2.8797   -2.2456 C.ar      12 UNK        -0.0802 
     10 C10        31.7011   -2.1569   -2.7319 C.ar      12 UNK        -0.0944 
     11 C11        31.8229   -0.7894   -2.4688 C.ar      12 UNK        -0.0787 
     12 C12        30.8439   -0.1478   -1.7034 C.ar      12 UNK        -0.0862 
     13 C13        29.7474   -0.8609   -1.2052 C.ar      12 UNK        -0.0733 
     14 C14        29.6374   -2.2276   -1.4767 C.ar      12 UNK        -0.0832 
     15 C15        28.6895   -0.1575   -0.3610 C.3       12 UNK         0.0240 
     16 S16        27.1035    0.0558   -1.2400 S.3       12 UNK        -0.2522 
     17 C17        27.6149    1.0006   -2.7123 C.3       12 UNK        -0.0967 
     18 CA         27.4544    0.1391   -4.0000 C.3       5 UNK         0.0660 
     19 N          26.0583    0.0266   -4.4366 N.am      5 UNK        -0.4015 
     20 C          25.3187    1.0183   -4.9586 C.2       4 UNK         0.4946 
     21 O          25.7330    2.1650   -5.1403 O.2       4 UNK        -0.5353 
     22 CA         23.8695    0.6843   -5.3454 C.3       4 UNK         0.0277 
     23 CB         23.8079    0.1221   -6.7737 C.3       4 UNK        -0.1981 
     24 N          23.2341   -0.2624   -4.4290 N.am      4 UNK        -0.4209 
     25 C          22.9042   -0.0044   -3.1542 C.2       3 UNK         0.4942 
     26 O          23.0593    1.0922   -2.6159 O.2       3 UNK        -0.5208 
     27 CA         22.2760   -1.1552   -2.3430 C.3       3 UNK         0.0250 
     28 CB         20.7663   -0.9247   -2.1608 C.3       3 UNK        -0.1990 
     29 N          22.4880   -2.4722   -2.9528 N.am      3 UNK        -0.4232 
     30 C          23.6567   -3.1270   -2.9532 C.2       2 UNK         0.4993 
     31 O          24.6522   -2.7346   -2.3407 O.2       2 UNK        -0.5286 
     32 CA         23.7253   -4.4313   -3.7755 C.3       2 UNK         0.0209 
     33 CB         22.7666   -4.4478   -4.9898 C.3       2 UNK        -0.1931 
     34 N          25.0932   -4.7494   -4.2066 N.am      2 UNK        -0.4546 
     35 C          25.8943   -4.0001   -4.9801 C.2       1 UNK         0.5154 
     36 O          25.5777   -2.9079   -5.4624 O.2       1 UNK        -0.5181 
     37 C          28.3412    0.5673   -5.1885 C.2       5 UNK         0.5014 
     38 O          28.3196   -0.1068   -6.2222 O.2       5 UNK        -0.5248 
     39 N          29.0737    1.6817   -5.0535 N.am      6 UNK        -0.4434 
     40 CA         29.9905    2.2210   -6.0585 C.3       6 UNK         0.0363 
     41 CB         30.7340    3.4318   -5.4750 C.3       6 UNK        -0.1936 
     42 C          29.3317    2.5835   -7.3976 C.2       6 UNK         0.5081 
     43 O          30.0167    2.5371   -8.4178 O.2       6 UNK        -0.5248 
     44 N          28.0241    2.8819   -7.3940 N.am      7 UNK        -0.4718 
     45 CA         27.2426    3.1405   -8.6073 C.3       7 UNK         0.0273 
     46 CB         25.8698    3.7150   -8.2235 C.3       7 UNK        -0.1935 
     47 C          27.0833    1.9030   -9.5115 C.2       7 UNK         0.5018 
     48 O          26.8635    2.0717  -10.7115 O.2       7 UNK        -0.5186 
     49 N          27.2070    0.6987   -8.9348 N.am      8 UNK        -0.4240 
     50 CA         27.2039   -0.5712   -9.6605 C.3       8 UNK         0.0235 
     51 CB         26.2199   -1.5428   -8.9896 C.3       8 UNK        -0.2000 
     52 C          28.6105   -1.1830   -9.7202 C.2       8 UNK         0.4941 
     53 O          29.0039   -1.6813  -10.7747 O.2       8 UNK        -0.5273 
     54 N          29.3353   -1.1614   -8.5927 N.am      9 UNK        -0.4262 
     55 CA         30.6387   -1.8102   -8.4350 C.3       9 UNK         0.0264 
     56 CB         30.8956   -2.0509   -6.9401 C.3       9 UNK        -0.1955 
     57 C          31.8190   -1.0524   -9.0670 C.2       9 UNK         0.5031 
     58 O          32.8397   -1.6887   -9.3331 O.2       9 UNK        -0.5390 
     59 N          31.6822    0.2674   -9.2813 N.am      10 UNK        -0.4204 
     60 CA         32.7112    1.1847   -9.7957 C.3       10 UNK         0.0237 
     61 CB         33.0312    0.8803  -11.2755 C.3       10 UNK        -0.1985 
     62 C          33.9642    1.2270   -8.8960 C.2       10 UNK         0.4970 
     63 O          35.0857    1.0794   -9.3863 O.2       10 UNK        -0.4914 
     64 N          33.7336    1.3966   -7.5872 N.am      11 UNK        -0.4285 
     65 CA         34.7526    1.4242   -6.5253 C.3       11 UNK         0.1007 
     66 C          35.8066    2.5502   -6.7147 C.2       11 UNK         0.5703 
     67 N          37.0621    2.2901   -6.3756 N.am      11 UNK        -0.7361 
     68 O          35.4866    3.6665   -7.1204 O.2       11 UNK        -0.4986 
     69 C69        34.1067    1.5304   -5.1174 C.3       12 UNK        -0.0947 
     70 S70        32.8597    0.2383   -4.8052 S.3       12 UNK        -0.2240 
     71 C71        33.0106   -0.0070   -3.0120 C.3       12 UNK         0.0194 
     72 H72        28.2742   -5.8749   -9.3534 H         1 UNK         0.0906 
     73 H73        26.8775   -4.8513   -9.6881 H         1 UNK         0.0906 
     74 H74        28.3676   -4.1383   -9.0648 H         1 UNK         0.0906 
     75 H75        28.3303   -3.7170   -6.8534 H         1 UNK         0.3140 
     76 H76        27.3117   -5.6145   -4.9407 H         1 UNK         0.1085 
     77 H77        27.9466   -3.7763   -3.2793 H         1 UNK         0.0836 
     78 H78        28.4733   -2.8019   -4.6325 H         1 UNK         0.0836 
     79 H79        29.7686   -4.8432   -1.8749 H         1 UNK         0.0731 
     80 H80        31.4362   -4.8558   -2.3890 H         1 UNK         0.0731 
     81 H81        32.4503   -2.6561   -3.3314 H         1 UNK         0.1312 
     82 H82        30.9367    0.9093   -1.4951 H         1 UNK         0.1406 
     83 H83        28.7889   -2.7786   -1.0936 H         1 UNK         0.1631 
     84 H84        29.0458    0.8198   -0.0316 H         1 UNK         0.0717 
     85 H85        28.5119   -0.7357    0.5469 H         1 UNK         0.0717 
     86 H86        27.0228    1.9156   -2.7670 H         1 UNK         0.0934 
     87 H87        28.6432    1.3232   -2.5548 H         1 UNK         0.0934 
     88 H88        27.7811   -0.8718   -3.7618 H         1 UNK         0.0739 
     89 H89        25.6609   -0.9042   -4.3997 H         1 UNK         0.3093 
     90 H90        23.3003    1.6160   -5.3184 H         1 UNK         0.0818 
     91 H91        22.7777    0.0103   -7.1120 H         1 UNK         0.0819 
     92 H92        24.3106    0.7819   -7.4816 H         1 UNK         0.0819 
     93 H93        24.2890   -0.8542   -6.8375 H         1 UNK         0.0819 
     94 H94        23.0731   -1.1937   -4.7820 H         1 UNK         0.3041 
     95 H95        22.7445   -1.1506   -1.3562 H         1 UNK         0.0784 
     96 H96        20.5736    0.0340   -1.6770 H         1 UNK         0.0793 
     97 H97        20.2392   -0.9188   -3.1158 H         1 UNK         0.0793 
     98 H98        20.3194   -1.6964   -1.5337 H         1 UNK         0.0793 
     99 H99        21.7080   -2.8701   -3.4565 H         1 UNK         0.3024 
    100 H100       23.4224   -5.2309   -3.0972 H         1 UNK         0.1171 
    101 H101       22.8974   -5.3563   -5.5782 H         1 UNK         0.0786 
    102 H102       22.9352   -3.6005   -5.6557 H         1 UNK         0.0786 
    103 H103       21.7215   -4.4260   -4.6797 H         1 UNK         0.0786 
    104 H104       25.4688   -5.6081   -3.8289 H         1 UNK         0.2977 
    105 H105       28.9967    2.2059   -4.1949 H         1 UNK         0.3127 
    106 H106       30.7196    1.4407   -6.2757 H         1 UNK         0.0770 
    107 H107       30.0509    4.2481   -5.2370 H         1 UNK         0.0814 
    108 H108       31.4688    3.8177   -6.1833 H         1 UNK         0.0814 
    109 H109       31.2718    3.1672   -4.5646 H         1 UNK         0.0814 
    110 H110       27.5167    2.8612   -6.5172 H         1 UNK         0.2983 
    111 H111       27.7747    3.8960   -9.1900 H         1 UNK         0.0947 
    112 H112       25.2915    3.9694   -9.1129 H         1 UNK         0.0806 
    113 H113       25.9707    4.6253   -7.6324 H         1 UNK         0.0806 
    114 H114       25.2798    3.0043   -7.6457 H         1 UNK         0.0806 
    115 H115       27.4137    0.6564   -7.9431 H         1 UNK         0.3000 
    116 H116       26.8707   -0.4221  -10.6899 H         1 UNK         0.0850 
    117 H117       26.2187   -2.5081   -9.4950 H         1 UNK         0.0810 
    118 H118       25.2012   -1.1604   -9.0396 H         1 UNK         0.0810 
    119 H119       26.4653   -1.7184   -7.9408 H         1 UNK         0.0810 
    120 H120       28.9329   -0.7522   -7.7495 H         1 UNK         0.3040 
    121 H121       30.5943   -2.7858   -8.9241 H         1 UNK         0.0766 
    122 H122       31.8730   -2.5046   -6.7698 H         1 UNK         0.0812 
    123 H123       30.1518   -2.7219   -6.5162 H         1 UNK         0.0812 
    124 H124       30.8621   -1.1225   -6.3722 H         1 UNK         0.0812 
    125 H125       30.8098    0.7150   -9.0210 H         1 UNK         0.3205 
    126 H126       32.2810    2.1864   -9.7598 H         1 UNK         0.0754 
    127 H127       33.7086    1.6281  -11.6896 H         1 UNK         0.0769 
    128 H128       32.1276    0.8892  -11.8850 H         1 UNK         0.0769 
    129 H129       33.5083   -0.0926  -11.3980 H         1 UNK         0.0769 
    130 H130       32.7817    1.5071   -7.2774 H         1 UNK         0.2981 
    131 H131       35.2758    0.4676   -6.5813 H         1 UNK         0.0541 
    132 H132       37.3323    1.3826   -6.0291 H         1 UNK         0.3459 
    133 H133       37.7562    3.0142   -6.4762 H         1 UNK         0.3459 
    134 H134       33.6283    2.5021   -4.9849 H         1 UNK         0.0612 
    135 H135       34.8778    1.4605   -4.3478 H         1 UNK         0.0612 
    136 H136       33.9374   -0.5402   -2.7956 H         1 UNK         0.0624 
    137 H137       33.0850    0.9645   -2.5208 H         1 UNK         0.0624 
@<TRIPOS>BOND
     1    1    2 1    
     2    1   72 1    
     3    1   73 1    
     4    1   74 1    
     5    2    3 2    
     6    2    4 am   BACKBONE|DICT|INTERRES
     7    4    5 1    
     8    4   75 1    
     9    5    6 1    
    10    5   35 1    
    11    5   76 1    
    12    6    7 1    
    13    6   77 1    
    14    6   78 1    
    15    7    8 1    
    16    8    9 1    
    17    8   79 1    
    18    8   80 1    
    19    9   10 ar   
    20    9   14 ar   
    21   10   11 ar   
    22   10   81 1    
    23   11   12 ar   
    24   11   71 1    
    25   12   13 ar   
    26   12   82 1    
    27   13   14 ar   
    28   13   15 1    
    29   14   83 1    
    30   15   16 1    
    31   15   84 1    
    32   15   85 1    
    33   16   17 1    
    34   17   18 1    
    35   17   86 1    
    36   17   87 1    
    37   18   19 1    
    38   18   37 1    
    39   18   88 1    
    40   19   20 am   BACKBONE|DICT|INTERRES
    41   19   89 1    
    42   20   21 2    
    43   20   22 1    
    44   22   23 1    
    45   22   24 1    
    46   22   90 1    
    47   23   91 1    
    48   23   92 1    
    49   23   93 1    
    50   24   25 am   BACKBONE|DICT|INTERRES
    51   24   94 1    
    52   25   26 2    
    53   25   27 1    
    54   27   28 1    
    55   27   29 1    
    56   27   95 1    
    57   28   96 1    
    58   28   97 1    
    59   28   98 1    
    60   29   30 am   BACKBONE|DICT|INTERRES
    61   29   99 1    
    62   30   31 2    
    63   30   32 1    
    64   32   33 1    
    65   32   34 1    
    66   32  100 1    
    67   33  101 1    
    68   33  102 1    
    69   33  103 1    
    70   34   35 am   BACKBONE|DICT|INTERRES
    71   34  104 1    
    72   35   36 2    
    73   37   38 2    
    74   37   39 am   BACKBONE|DICT|INTERRES
    75   39   40 1    
    76   39  105 1    
    77   40   41 1    
    78   40   42 1    
    79   40  106 1    
    80   41  107 1    
    81   41  108 1    
    82   41  109 1    
    83   42   43 2    
    84   42   44 am   BACKBONE|DICT|INTERRES
    85   44   45 1    
    86   44  110 1    
    87   45   46 1    
    88   45   47 1    
    89   45  111 1    
    90   46  112 1    
    91   46  113 1    
    92   46  114 1    
    93   47   48 2    
    94   47   49 am   BACKBONE|DICT|INTERRES
    95   49   50 1    
    96   49  115 1    
    97   50   51 1    
    98   50   52 1    
    99   50  116 1    
   100   51  117 1    
   101   51  118 1    
   102   51  119 1    
   103   52   53 2    
   104   52   54 am   BACKBONE|DICT|INTERRES
   105   54   55 1    
   106   54  120 1    
   107   55   56 1    
   108   55   57 1    
   109   55  121 1    
   110   56  122 1    
   111   56  123 1    
   112   56  124 1    
   113   57   58 2    
   114   57   59 am   BACKBONE|DICT|INTERRES
   115   59   60 1    
   116   59  125 1    
   117   60   61 1    
   118   60   62 1    
   119   60  126 1    
   120   61  127 1    
   121   61  128 1    
   122   61  129 1    
   123   62   63 2    
   124   62   64 am   BACKBONE|DICT|INTERRES
   125   64   65 1    
   126   64  130 1    
   127   65   66 1    
   128   65   69 1    
   129   65  131 1    
   130   66   67 am   BACKBONE|DICT|INTERRES
   131   66   68 2    
   132   67  132 1    
   133   67  133 1    
   134   69   70 1    
   135   69  134 1    
   136   69  135 1    
   137   70   71 1    
   138   71  136 1    
   139   71  137 1    
@<TRIPOS>SUBSTRUCTURE
     1 UNK         1 GROUP             0       ****    0 ROOT    
