@<TRIPOS>MOLECULE
3R137
137   139    1
SMALL
USER_CHARGES


@<TRIPOS>ATOM
      1 CA         24.2903   -5.3983   -1.1182 C.3       0 UNK        -0.2020 
      2 C          25.4401   -5.7865   -2.0442 C.2       0 UNK         0.4855 
      3 O          25.2430   -6.6185   -2.9269 O.2       0 UNK        -0.5197 
      4 N          26.6527   -5.2394   -1.8862 N.am      1 UNK        -0.4892 
      5 CA         27.0592   -4.1545   -0.9872 C.3       1 UNK         0.0835 
      6 C6         28.5939   -4.1543   -0.7193 C.3       12 UNK        -0.0855 
      7 S7         29.6484   -4.6424   -2.1377 S.3       12 UNK        -0.2931 
      8 C8         31.1517   -3.6496   -1.8717 C.3       12 UNK         0.0378 
      9 C9         31.0797   -2.3304   -2.6233 C.ar      12 UNK        -0.0802 
     10 C10        31.4561   -2.2726   -3.9676 C.ar      12 UNK        -0.0944 
     11 C11        31.3592   -1.0742   -4.6896 C.ar      12 UNK        -0.0787 
     12 C12        30.8920    0.0712   -4.0383 C.ar      12 UNK        -0.0862 
     13 C13        30.5181    0.0267   -2.6931 C.ar      12 UNK        -0.0733 
     14 C14        30.6233   -1.1752   -1.9876 C.ar      12 UNK        -0.0832 
     15 C15        29.9739    1.2626   -1.9973 C.3       12 UNK         0.0240 
     16 S16        28.2125    1.0411   -1.6108 S.3       12 UNK        -0.2522 
     17 C17        27.3774    2.1353   -2.8036 C.3       12 UNK        -0.0967 
     18 CA         27.5301    1.7759   -4.3082 C.3       5 UNK         0.0660 
     19 N          27.3700    0.3511   -4.6188 N.am      5 UNK        -0.4015 
     20 C          27.6198   -0.2005   -5.8193 C.2       4 UNK         0.4946 
     21 O          28.1226    0.4060   -6.7686 O.2       4 UNK        -0.5353 
     22 CA         27.1849   -1.6607   -6.0217 C.3       4 UNK         0.0277 
     23 CB         28.3129   -2.6354   -5.6548 C.3       4 UNK        -0.1981 
     24 N          25.9825   -1.9849   -5.2529 N.am      4 UNK        -0.4209 
     25 C          24.7479   -1.5803   -5.5862 C.2       3 UNK         0.4942 
     26 O          24.4968   -0.9214   -6.5941 O.2       3 UNK        -0.5208 
     27 CA         23.6030   -1.9294   -4.6179 C.3       3 UNK         0.0250 
     28 CB         23.0474   -3.3296   -4.9229 C.3       3 UNK        -0.1990 
     29 N          23.9935   -1.8583   -3.2088 N.am      3 UNK        -0.4232 
     30 C          24.4289   -0.7526   -2.5898 C.2       2 UNK         0.4993 
     31 O          24.4799    0.3533   -3.1273 O.2       2 UNK        -0.5286 
     32 CA         24.9408   -0.9127   -1.1466 C.3       2 UNK         0.0209 
     33 CB         23.8022   -0.6471   -0.1493 C.3       2 UNK        -0.1931 
     34 N          25.5653   -2.2088   -0.8359 N.am      2 UNK        -0.4546 
     35 C          26.5492   -2.8047   -1.5299 C.2       1 UNK         0.5154 
     36 O          27.0124   -2.3546   -2.5777 O.2       1 UNK        -0.5181 
     37 C          26.5448    2.6249   -5.1351 C.2       5 UNK         0.5014 
     38 O          26.9610    3.5973   -5.7640 O.2       5 UNK        -0.5248 
     39 N          25.2620    2.2282   -5.1241 N.am      6 UNK        -0.4434 
     40 CA         24.1656    2.8766   -5.8485 C.3       6 UNK         0.0363 
     41 CB         22.8293    2.2397   -5.4353 C.3       6 UNK        -0.1936 
     42 C          24.3381    2.8331   -7.3752 C.2       6 UNK         0.5081 
     43 O          24.0705    3.8333   -8.0415 O.2       6 UNK        -0.5248 
     44 N          24.8073    1.6922   -7.8998 N.am      7 UNK        -0.4718 
     45 CA         25.1662    1.5171   -9.3105 C.3       7 UNK         0.0273 
     46 CB         25.3388    0.0181   -9.6047 C.3       7 UNK        -0.1935 
     47 C          26.4390    2.2822   -9.7177 C.2       7 UNK         0.5018 
     48 O          26.6213    2.5375  -10.9087 O.2       7 UNK        -0.5186 
     49 N          27.2909    2.6096   -8.7330 N.am      8 UNK        -0.4240 
     50 CA         28.6133    3.2318   -8.8537 C.3       8 UNK         0.0235 
     51 CB         28.4924    4.6919   -9.3388 C.3       8 UNK        -0.2000 
     52 C          29.5659    2.3782   -9.7105 C.2       8 UNK         0.4941 
     53 O          30.2039    2.8934  -10.6320 O.2       8 UNK        -0.5273 
     54 N          29.6051    1.0721   -9.4125 N.am      9 UNK        -0.4262 
     55 CA         30.3989    0.0822  -10.1418 C.3       9 UNK         0.0264 
     56 CB         29.9281   -1.3277   -9.7485 C.3       9 UNK        -0.1955 
     57 C          31.9108    0.2584   -9.9117 C.2       9 UNK         0.5031 
     58 O          32.3293    0.7183   -8.8460 O.2       9 UNK        -0.5390 
     59 N          32.7116   -0.1351  -10.9096 N.am      10 UNK        -0.4204 
     60 CA         34.1755   -0.0659  -10.8922 C.3       10 UNK         0.0237 
     61 CB         34.6882    0.0177  -12.3428 C.3       10 UNK        -0.1985 
     62 C          34.7827   -1.2496  -10.1152 C.2       10 UNK         0.4970 
     63 O          35.4511   -2.0997  -10.7066 O.2       10 UNK        -0.4914 
     64 N          34.5093   -1.2975   -8.8071 N.am      11 UNK        -0.4285 
     65 CA         34.9346   -2.3737   -7.8947 C.3       11 UNK         0.1007 
     66 C          36.4487   -2.3684   -7.5330 C.2       11 UNK         0.5703 
     67 N          37.2038   -1.3189   -7.8363 N.am      11 UNK        -0.7361 
     68 O          36.9492   -3.3407   -6.9725 O.2       11 UNK        -0.4986 
     69 C69        34.0602   -2.4337   -6.6137 C.3       12 UNK        -0.0947 
     70 S70        32.2750   -2.4954   -6.9861 S.3       12 UNK        -0.2240 
     71 C71        31.6952   -0.9623   -6.1771 C.3       12 UNK         0.0194 
     72 H72        24.5958   -5.3938   -0.0731 H         1 UNK         0.0906 
     73 H73        23.8891   -4.4211   -1.3789 H         1 UNK         0.0906 
     74 H74        23.4777   -6.1191   -1.2092 H         1 UNK         0.0906 
     75 H75        27.3890   -5.5194   -2.5205 H         1 UNK         0.3140 
     76 H76        26.5887   -4.3182   -0.0165 H         1 UNK         0.1085 
     77 H77        28.8087   -4.8655    0.0799 H         1 UNK         0.0836 
     78 H78        28.9186   -3.1867   -0.3320 H         1 UNK         0.0836 
     79 H79        32.0131   -4.2204   -2.2217 H         1 UNK         0.0731 
     80 H80        31.3139   -3.4841   -0.8055 H         1 UNK         0.0731 
     81 H81        31.7959   -3.1802   -4.4442 H         1 UNK         0.1312 
     82 H82        30.7993    0.9965   -4.5904 H         1 UNK         0.1406 
     83 H83        30.3209   -1.2134   -0.9502 H         1 UNK         0.1631 
     84 H84        30.1235    2.1592   -2.6004 H         1 UNK         0.0717 
     85 H85        30.5226    1.4218   -1.0680 H         1 UNK         0.0717 
     86 H86        26.3256    2.1442   -2.5119 H         1 UNK         0.0934 
     87 H87        27.7313    3.1536   -2.6305 H         1 UNK         0.0934 
     88 H88        28.5392    2.0544   -4.6174 H         1 UNK         0.0739 
     89 H89        27.0025   -0.2345   -3.8808 H         1 UNK         0.3093 
     90 H90        26.9594   -1.7958   -7.0816 H         1 UNK         0.0818 
     91 H91        28.6433   -2.5045   -4.6239 H         1 UNK         0.0819 
     92 H92        28.0009   -3.6725   -5.7762 H         1 UNK         0.0819 
     93 H93        29.1801   -2.4828   -6.2967 H         1 UNK         0.0819 
     94 H94        26.1349   -2.4354   -4.3557 H         1 UNK         0.3041 
     95 H95        22.8047   -1.2015   -4.7767 H         1 UNK         0.0784 
     96 H96        23.7921   -4.1082   -4.7505 H         1 UNK         0.0793 
     97 H97        22.7326   -3.4048   -5.9648 H         1 UNK         0.0793 
     98 H98        22.1767   -3.5547   -4.3067 H         1 UNK         0.0793 
     99 H99        23.9834   -2.7211   -2.6885 H         1 UNK         0.3024 
    100 H100       25.7011   -0.1462   -0.9967 H         1 UNK         0.1171 
    101 H101       24.1693   -0.6237    0.8770 H         1 UNK         0.0786 
    102 H102       23.3309    0.3180   -0.3424 H         1 UNK         0.0786 
    103 H103       23.0234   -1.4083   -0.2118 H         1 UNK         0.0786 
    104 H104       25.2456   -2.6484    0.0153 H         1 UNK         0.2977 
    105 H105       25.0040    1.4461   -4.5234 H         1 UNK         0.3127 
    106 H106       24.1505    3.9263   -5.5481 H         1 UNK         0.0770 
    107 H107       22.7908    1.1810   -5.6936 H         1 UNK         0.0814 
    108 H108       21.9923    2.7290   -5.9351 H         1 UNK         0.0814 
    109 H109       22.6630    2.3274   -4.3615 H         1 UNK         0.0814 
    110 H110       24.9154    0.8805   -7.2973 H         1 UNK         0.2983 
    111 H111       24.3450    1.8968   -9.9225 H         1 UNK         0.0947 
    112 H112       25.5779   -0.1504  -10.6557 H         1 UNK         0.0806 
    113 H113       24.4262   -0.5371   -9.3871 H         1 UNK         0.0806 
    114 H114       26.1451   -0.4164   -9.0127 H         1 UNK         0.0806 
    115 H115       27.0385    2.3295   -7.7935 H         1 UNK         0.3000 
    116 H116       29.0362    3.2497   -7.8479 H         1 UNK         0.0850 
    117 H117       29.4640    5.1871   -9.3294 H         1 UNK         0.0810 
    118 H118       27.8284    5.2674   -8.6936 H         1 UNK         0.0810 
    119 H119       28.1067    4.7517  -10.3570 H         1 UNK         0.0810 
    120 H120       29.0847    0.7469   -8.6034 H         1 UNK         0.3040 
    121 H121       30.2023    0.2207  -11.2073 H         1 UNK         0.0766 
    122 H122       28.8934   -1.4941  -10.0489 H         1 UNK         0.0812 
    123 H123       29.9877   -1.4917   -8.6738 H         1 UNK         0.0812 
    124 H124       30.5326   -2.0975  -10.2299 H         1 UNK         0.0812 
    125 H125       32.2936   -0.5401  -11.7354 H         1 UNK         0.3205 
    126 H126       34.4823    0.8499  -10.3819 H         1 UNK         0.0754 
    127 H127       34.2940    0.8975  -12.8520 H         1 UNK         0.0769 
    128 H128       34.4070   -0.8608  -12.9251 H         1 UNK         0.0769 
    129 H129       35.7763    0.0920  -12.3688 H         1 UNK         0.0769 
    130 H130       33.9022   -0.5837   -8.4197 H         1 UNK         0.2981 
    131 H131       34.7712   -3.3128   -8.4271 H         1 UNK         0.0541 
    132 H132       38.1836   -1.3306   -7.6007 H         1 UNK         0.3459 
    133 H133       36.8032   -0.5169   -8.2950 H         1 UNK         0.3459 
    134 H134       34.2738   -1.5819   -5.9658 H         1 UNK         0.0612 
    135 H135       34.3023   -3.3233   -6.0295 H         1 UNK         0.0612 
    136 H136       30.8004   -0.6230   -6.6986 H         1 UNK         0.0624 
    137 H137       32.4379   -0.1764   -6.3181 H         1 UNK         0.0624 
@<TRIPOS>BOND
     1    1    2 1    
     2    1   72 1    
     3    1   73 1    
     4    1   74 1    
     5    2    3 2    
     6    2    4 am   BACKBONE|DICT|INTERRES
     7    4    5 1    
     8    4   75 1    
     9    5    6 1    
    10    5   35 1    
    11    5   76 1    
    12    6    7 1    
    13    6   77 1    
    14    6   78 1    
    15    7    8 1    
    16    8    9 1    
    17    8   79 1    
    18    8   80 1    
    19    9   10 ar   
    20    9   14 ar   
    21   10   11 ar   
    22   10   81 1    
    23   11   12 ar   
    24   11   71 1    
    25   12   13 ar   
    26   12   82 1    
    27   13   14 ar   
    28   13   15 1    
    29   14   83 1    
    30   15   16 1    
    31   15   84 1    
    32   15   85 1    
    33   16   17 1    
    34   17   18 1    
    35   17   86 1    
    36   17   87 1    
    37   18   19 1    
    38   18   37 1    
    39   18   88 1    
    40   19   20 am   BACKBONE|DICT|INTERRES
    41   19   89 1    
    42   20   21 2    
    43   20   22 1    
    44   22   23 1    
    45   22   24 1    
    46   22   90 1    
    47   23   91 1    
    48   23   92 1    
    49   23   93 1    
    50   24   25 am   BACKBONE|DICT|INTERRES
    51   24   94 1    
    52   25   26 2    
    53   25   27 1    
    54   27   28 1    
    55   27   29 1    
    56   27   95 1    
    57   28   96 1    
    58   28   97 1    
    59   28   98 1    
    60   29   30 am   BACKBONE|DICT|INTERRES
    61   29   99 1    
    62   30   31 2    
    63   30   32 1    
    64   32   33 1    
    65   32   34 1    
    66   32  100 1    
    67   33  101 1    
    68   33  102 1    
    69   33  103 1    
    70   34   35 am   BACKBONE|DICT|INTERRES
    71   34  104 1    
    72   35   36 2    
    73   37   38 2    
    74   37   39 am   BACKBONE|DICT|INTERRES
    75   39   40 1    
    76   39  105 1    
    77   40   41 1    
    78   40   42 1    
    79   40  106 1    
    80   41  107 1    
    81   41  108 1    
    82   41  109 1    
    83   42   43 2    
    84   42   44 am   BACKBONE|DICT|INTERRES
    85   44   45 1    
    86   44  110 1    
    87   45   46 1    
    88   45   47 1    
    89   45  111 1    
    90   46  112 1    
    91   46  113 1    
    92   46  114 1    
    93   47   48 2    
    94   47   49 am   BACKBONE|DICT|INTERRES
    95   49   50 1    
    96   49  115 1    
    97   50   51 1    
    98   50   52 1    
    99   50  116 1    
   100   51  117 1    
   101   51  118 1    
   102   51  119 1    
   103   52   53 2    
   104   52   54 am   BACKBONE|DICT|INTERRES
   105   54   55 1    
   106   54  120 1    
   107   55   56 1    
   108   55   57 1    
   109   55  121 1    
   110   56  122 1    
   111   56  123 1    
   112   56  124 1    
   113   57   58 2    
   114   57   59 am   BACKBONE|DICT|INTERRES
   115   59   60 1    
   116   59  125 1    
   117   60   61 1    
   118   60   62 1    
   119   60  126 1    
   120   61  127 1    
   121   61  128 1    
   122   61  129 1    
   123   62   63 2    
   124   62   64 am   BACKBONE|DICT|INTERRES
   125   64   65 1    
   126   64  130 1    
   127   65   66 1    
   128   65   69 1    
   129   65  131 1    
   130   66   67 am   BACKBONE|DICT|INTERRES
   131   66   68 2    
   132   67  132 1    
   133   67  133 1    
   134   69   70 1    
   135   69  134 1    
   136   69  135 1    
   137   70   71 1    
   138   71  136 1    
   139   71  137 1    
@<TRIPOS>SUBSTRUCTURE
     1 UNK         1 GROUP             0       ****    0 ROOT    
