@<TRIPOS>MOLECULE
3R137
137   139    1
SMALL
USER_CHARGES


@<TRIPOS>ATOM
      1 CA         25.3181   -5.7004   -4.8461 C.3       0 UNK        -0.2020 
      2 C          25.6906   -5.4349   -3.3952 C.2       0 UNK         0.4855 
      3 O          24.8246   -5.4741   -2.5224 O.2       0 UNK        -0.5197 
      4 N          26.9715   -5.1452   -3.1310 N.am      1 UNK        -0.4892 
      5 CA         27.5345   -4.9038   -1.7923 C.3       1 UNK         0.0835 
      6 C6         29.0609   -5.1777   -1.7793 C.3       12 UNK        -0.0855 
      7 S7         30.0273   -4.0609   -2.8598 S.3       12 UNK        -0.2931 
      8 C8         30.9491   -3.1247   -1.6016 C.3       12 UNK         0.0378 
      9 C9         31.7231   -1.9759   -2.2246 C.ar      12 UNK        -0.0802 
     10 C10        32.9869   -2.1971   -2.7767 C.ar      12 UNK        -0.0944 
     11 C11        33.7140   -1.1447   -3.3514 C.ar      12 UNK        -0.0787 
     12 C12        33.1592    0.1401   -3.3449 C.ar      12 UNK        -0.0862 
     13 C13        31.8974    0.3749   -2.7890 C.ar      12 UNK        -0.0733 
     14 C14        31.1839   -0.6882   -2.2303 C.ar      12 UNK        -0.0832 
     15 C15        31.3150    1.7812   -2.7674 C.3       12 UNK         0.0240 
     16 S16        30.5377    2.2275   -4.3502 S.3       12 UNK        -0.2522 
     17 C17        29.0735    1.1414   -4.3656 C.3       12 UNK        -0.0967 
     18 CA         28.3456    1.1655   -5.7300 C.3       5 UNK         0.0660 
     19 N          27.5905   -0.0682   -5.9630 N.am      5 UNK        -0.4015 
     20 C          27.0561   -0.4232   -7.1394 C.2       4 UNK         0.4946 
     21 O          27.1396    0.2569   -8.1594 O.2       4 UNK        -0.5353 
     22 CA         26.2391   -1.7240   -7.1669 C.3       4 UNK         0.0277 
     23 CB         27.1613   -2.9540   -7.1761 C.3       4 UNK        -0.1981 
     24 N          25.3050   -1.8090   -6.0430 N.am      4 UNK        -0.4209 
     25 C          24.2690   -0.9782   -5.8565 C.2       3 UNK         0.4942 
     26 O          23.9400   -0.1028   -6.6553 O.2       3 UNK        -0.5208 
     27 CA         23.4952   -1.1198   -4.5350 C.3       3 UNK         0.0250 
     28 CB         22.3642   -2.1502   -4.6814 C.3       3 UNK        -0.1990 
     29 N          24.3345   -1.4744   -3.3840 N.am      3 UNK        -0.4232 
     30 C          25.3635   -0.7475   -2.9187 C.2       2 UNK         0.4993 
     31 O          25.7789    0.2819   -3.4510 O.2       2 UNK        -0.5286 
     32 CA         26.0802   -1.3075   -1.6877 C.3       2 UNK         0.0209 
     33 CB         25.1757   -1.2051   -0.4413 C.3       2 UNK        -0.1931 
     34 N          26.4794   -2.6855   -1.9748 N.am      2 UNK        -0.4546 
     35 C          27.1838   -3.5163   -1.1977 C.2       1 UNK         0.5154 
     36 O          27.5745   -3.2276   -0.0657 O.2       1 UNK        -0.5181 
     37 C          27.4645    2.4195   -5.9035 C.2       5 UNK         0.5014 
     38 O          27.9089    3.3893   -6.5183 O.2       5 UNK        -0.5248 
     39 N          26.2090    2.3565   -5.4335 N.am      6 UNK        -0.4434 
     40 CA         25.1847    3.3842   -5.6576 C.3       6 UNK         0.0363 
     41 CB         23.9256    3.0399   -4.8473 C.3       6 UNK        -0.1936 
     42 C          24.8367    3.5910   -7.1466 C.2       6 UNK         0.5081 
     43 O          24.5124    4.7111   -7.5404 O.2       6 UNK        -0.5248 
     44 N          24.9522    2.5263   -7.9519 N.am      7 UNK        -0.4718 
     45 CA         24.8206    2.5389   -9.4120 C.3       7 UNK         0.0273 
     46 CB         24.2460    1.1849   -9.8659 C.3       7 UNK        -0.1935 
     47 C          26.1455    2.8571  -10.1404 C.2       7 UNK         0.5018 
     48 O          26.1888    2.7475  -11.3664 O.2       7 UNK        -0.5186 
     49 N          27.1925    3.2401   -9.3920 N.am      8 UNK        -0.4240 
     50 CA         28.5466    3.6001   -9.8328 C.3       8 UNK         0.0235 
     51 CB         28.5279    4.7768  -10.8327 C.3       8 UNK        -0.2000 
     52 C          29.4027    2.4159  -10.3242 C.2       8 UNK         0.4941 
     53 O          30.4585    2.6467  -10.9160 O.2       8 UNK        -0.5273 
     54 N          28.9920    1.1761  -10.0296 N.am      9 UNK        -0.4262 
     55 CA         29.7518   -0.0489  -10.2777 C.3       9 UNK         0.0264 
     56 CB         28.8003   -1.1329  -10.8187 C.3       9 UNK        -0.1955 
     57 C          30.4566   -0.4693   -8.9771 C.2       9 UNK         0.5031 
     58 O          30.1928   -1.5500   -8.4442 O.2       9 UNK        -0.5390 
     59 N          31.3246    0.4167   -8.4686 N.am      10 UNK        -0.4204 
     60 CA         32.1136    0.2321   -7.2483 C.3       10 UNK         0.0237 
     61 CB         32.9716    1.4854   -7.0098 C.3       10 UNK        -0.1985 
     62 C          32.9928   -1.0252   -7.3308 C.2       10 UNK         0.4970 
     63 O          33.7766   -1.1466   -8.2750 O.2       10 UNK        -0.4914 
     64 N          32.8186   -1.9348   -6.3633 N.am      11 UNK        -0.4285 
     65 CA         33.4450   -3.2669   -6.3075 C.3       11 UNK         0.1007 
     66 C          32.9855   -4.2423   -7.4394 C.2       11 UNK         0.5703 
     67 N          31.9284   -3.9537   -8.1917 N.am      11 UNK        -0.7361 
     68 O          33.5686   -5.3098   -7.6150 O.2       11 UNK        -0.4986 
     69 C69        34.9966   -3.1909   -6.1337 C.3       12 UNK        -0.0947 
     70 S70        35.5365   -3.0609   -4.3967 S.3       12 UNK        -0.2240 
     71 C71        35.1102   -1.3403   -3.9506 C.3       12 UNK         0.0194 
     72 H72        24.5971   -4.9620   -5.1950 H         1 UNK         0.0906 
     73 H73        26.1869   -5.6686   -5.5033 H         1 UNK         0.0906 
     74 H74        24.8637   -6.6866   -4.9389 H         1 UNK         0.0906 
     75 H75        27.6474   -5.1213   -3.8829 H         1 UNK         0.3140 
     76 H76        27.0766   -5.6287   -1.1150 H         1 UNK         0.1085 
     77 H77        29.4439   -5.1343   -0.7578 H         1 UNK         0.0836 
     78 H78        29.2483   -6.2015   -2.1071 H         1 UNK         0.0836 
     79 H79        31.6337   -3.7955   -1.0799 H         1 UNK         0.0731 
     80 H80        30.2574   -2.7444   -0.8481 H         1 UNK         0.0731 
     81 H81        33.3944   -3.1974   -2.7486 H         1 UNK         0.1312 
     82 H82        33.7152    0.9669   -3.7651 H         1 UNK         0.1406 
     83 H83        30.2093   -0.5132   -1.7947 H         1 UNK         0.1631 
     84 H84        32.1076    2.4993   -2.5523 H         1 UNK         0.0717 
     85 H85        30.5852    1.8861   -1.9630 H         1 UNK         0.0717 
     86 H86        29.4188    0.1275   -4.1635 H         1 UNK         0.0934 
     87 H87        28.4052    1.4049   -3.5430 H         1 UNK         0.0934 
     88 H88        29.1030    1.2020   -6.5166 H         1 UNK         0.0739 
     89 H89        27.4149   -0.6468   -5.1562 H         1 UNK         0.3093 
     90 H90        25.6563   -1.7282   -8.0907 H         1 UNK         0.0818 
     91 H91        27.7571   -3.0291   -6.2657 H         1 UNK         0.0819 
     92 H92        26.5909   -3.8761   -7.2855 H         1 UNK         0.0819 
     93 H93        27.8583   -2.9089   -8.0142 H         1 UNK         0.0819 
     94 H94        25.4841   -2.5139   -5.3469 H         1 UNK         0.3041 
     95 H95        23.0437   -0.1494   -4.3191 H         1 UNK         0.0784 
     96 H96        21.7155   -1.9004   -5.5224 H         1 UNK         0.0793 
     97 H97        22.7494   -3.1557   -4.8545 H         1 UNK         0.0793 
     98 H98        21.7366   -2.1799   -3.7904 H         1 UNK         0.0793 
     99 H99        24.0543   -2.2924   -2.8609 H         1 UNK         0.3024 
    100 H100       26.9816   -0.7133   -1.5225 H         1 UNK         0.1171 
    101 H101       25.7224   -1.4371    0.4723 H         1 UNK         0.0786 
    102 H102       24.7841   -0.1935   -0.3247 H         1 UNK         0.0786 
    103 H103       24.3228   -1.8821   -0.4986 H         1 UNK         0.0786 
    104 H104       26.2401   -3.0318   -2.8915 H         1 UNK         0.2977 
    105 H105       25.9376    1.5454   -4.8818 H         1 UNK         0.3127 
    106 H106       25.5834    4.3285   -5.2811 H         1 UNK         0.0770 
    107 H107       23.4595    2.1199   -5.1991 H         1 UNK         0.0814 
    108 H108       23.1812    3.8329   -4.9311 H         1 UNK         0.0814 
    109 H109       24.1533    2.9179   -3.7882 H         1 UNK         0.0814 
    110 H110       25.1923    1.6329   -7.5380 H         1 UNK         0.2983 
    111 H111       24.1095    3.3169   -9.6973 H         1 UNK         0.0947 
    112 H112       24.0480    1.1800  -10.9384 H         1 UNK         0.0806 
    113 H113       23.3040    0.9656   -9.3628 H         1 UNK         0.0806 
    114 H114       24.9330    0.3645   -9.6577 H         1 UNK         0.0806 
    115 H115       27.0642    3.2635   -8.3856 H         1 UNK         0.3000 
    116 H116       29.0504    3.9583   -8.9340 H         1 UNK         0.0850 
    117 H117       29.5349    5.1580  -11.0063 H         1 UNK         0.0810 
    118 H118       27.9301    5.6075  -10.4579 H         1 UNK         0.0810 
    119 H119       28.1254    4.4814  -11.8018 H         1 UNK         0.0810 
    120 H120       28.1567    1.0529   -9.4577 H         1 UNK         0.3040 
    121 H121       30.5237    0.1215  -11.0310 H         1 UNK         0.0766 
    122 H122       28.3301   -0.8160  -11.7495 H         1 UNK         0.0812 
    123 H123       28.0074   -1.3700  -10.1091 H         1 UNK         0.0812 
    124 H124       29.3404   -2.0578  -11.0247 H         1 UNK         0.0812 
    125 H125       31.4916    1.2648   -8.9921 H         1 UNK         0.3205 
    126 H126       31.4162    0.1247   -6.4152 H         1 UNK         0.0754 
    127 H127       33.5702    1.3830   -6.1049 H         1 UNK         0.0769 
    128 H128       32.3521    2.3742   -6.8886 H         1 UNK         0.0769 
    129 H129       33.6609    1.6664   -7.8357 H         1 UNK         0.0769 
    130 H130       32.1480   -1.7475   -5.6322 H         1 UNK         0.2981 
    131 H131       33.0361   -3.7310   -5.4094 H         1 UNK         0.0541 
    132 H132       31.4144   -3.0856   -8.0797 H         1 UNK         0.3459 
    133 H133       31.6443   -4.6093   -8.9011 H         1 UNK         0.3459 
    134 H134       35.4355   -2.3731   -6.7050 H         1 UNK         0.0612 
    135 H135       35.4834   -4.0897   -6.5142 H         1 UNK         0.0612 
    136 H136       35.8399   -0.9935   -3.2181 H         1 UNK         0.0624 
    137 H137       35.2324   -0.7067   -4.8304 H         1 UNK         0.0624 
@<TRIPOS>BOND
     1    1    2 1    
     2    1   72 1    
     3    1   73 1    
     4    1   74 1    
     5    2    3 2    
     6    2    4 am   BACKBONE|DICT|INTERRES
     7    4    5 1    
     8    4   75 1    
     9    5    6 1    
    10    5   35 1    
    11    5   76 1    
    12    6    7 1    
    13    6   77 1    
    14    6   78 1    
    15    7    8 1    
    16    8    9 1    
    17    8   79 1    
    18    8   80 1    
    19    9   10 ar   
    20    9   14 ar   
    21   10   11 ar   
    22   10   81 1    
    23   11   12 ar   
    24   11   71 1    
    25   12   13 ar   
    26   12   82 1    
    27   13   14 ar   
    28   13   15 1    
    29   14   83 1    
    30   15   16 1    
    31   15   84 1    
    32   15   85 1    
    33   16   17 1    
    34   17   18 1    
    35   17   86 1    
    36   17   87 1    
    37   18   19 1    
    38   18   37 1    
    39   18   88 1    
    40   19   20 am   BACKBONE|DICT|INTERRES
    41   19   89 1    
    42   20   21 2    
    43   20   22 1    
    44   22   23 1    
    45   22   24 1    
    46   22   90 1    
    47   23   91 1    
    48   23   92 1    
    49   23   93 1    
    50   24   25 am   BACKBONE|DICT|INTERRES
    51   24   94 1    
    52   25   26 2    
    53   25   27 1    
    54   27   28 1    
    55   27   29 1    
    56   27   95 1    
    57   28   96 1    
    58   28   97 1    
    59   28   98 1    
    60   29   30 am   BACKBONE|DICT|INTERRES
    61   29   99 1    
    62   30   31 2    
    63   30   32 1    
    64   32   33 1    
    65   32   34 1    
    66   32  100 1    
    67   33  101 1    
    68   33  102 1    
    69   33  103 1    
    70   34   35 am   BACKBONE|DICT|INTERRES
    71   34  104 1    
    72   35   36 2    
    73   37   38 2    
    74   37   39 am   BACKBONE|DICT|INTERRES
    75   39   40 1    
    76   39  105 1    
    77   40   41 1    
    78   40   42 1    
    79   40  106 1    
    80   41  107 1    
    81   41  108 1    
    82   41  109 1    
    83   42   43 2    
    84   42   44 am   BACKBONE|DICT|INTERRES
    85   44   45 1    
    86   44  110 1    
    87   45   46 1    
    88   45   47 1    
    89   45  111 1    
    90   46  112 1    
    91   46  113 1    
    92   46  114 1    
    93   47   48 2    
    94   47   49 am   BACKBONE|DICT|INTERRES
    95   49   50 1    
    96   49  115 1    
    97   50   51 1    
    98   50   52 1    
    99   50  116 1    
   100   51  117 1    
   101   51  118 1    
   102   51  119 1    
   103   52   53 2    
   104   52   54 am   BACKBONE|DICT|INTERRES
   105   54   55 1    
   106   54  120 1    
   107   55   56 1    
   108   55   57 1    
   109   55  121 1    
   110   56  122 1    
   111   56  123 1    
   112   56  124 1    
   113   57   58 2    
   114   57   59 am   BACKBONE|DICT|INTERRES
   115   59   60 1    
   116   59  125 1    
   117   60   61 1    
   118   60   62 1    
   119   60  126 1    
   120   61  127 1    
   121   61  128 1    
   122   61  129 1    
   123   62   63 2    
   124   62   64 am   BACKBONE|DICT|INTERRES
   125   64   65 1    
   126   64  130 1    
   127   65   66 1    
   128   65   69 1    
   129   65  131 1    
   130   66   67 am   BACKBONE|DICT|INTERRES
   131   66   68 2    
   132   67  132 1    
   133   67  133 1    
   134   69   70 1    
   135   69  134 1    
   136   69  135 1    
   137   70   71 1    
   138   71  136 1    
   139   71  137 1    
@<TRIPOS>SUBSTRUCTURE
     1 UNK         1 GROUP             0       ****    0 ROOT    
