@<TRIPOS>MOLECULE
3R137
137   139    1
SMALL
USER_CHARGES


@<TRIPOS>ATOM
      1 CA         29.4205   -4.7171   -9.0799 C.3       0 UNK        -0.2020 
      2 C          28.8826   -5.1421   -7.7213 C.2       0 UNK         0.4855 
      3 O          28.7479   -6.3374   -7.4618 O.2       0 UNK        -0.5197 
      4 N          28.5699   -4.1700   -6.8533 N.am      1 UNK        -0.4892 
      5 CA         28.0146   -4.3773   -5.5080 C.3       1 UNK         0.0835 
      6 C6         28.1734   -3.0909   -4.6530 C.3       12 UNK        -0.0855 
      7 S7         28.2282   -3.4371   -2.8620 S.3       12 UNK        -0.2931 
      8 C8         30.0031   -3.2601   -2.4892 C.3       12 UNK         0.0378 
      9 C9         30.4205   -1.8000   -2.3810 C.ar      12 UNK        -0.0802 
     10 C10        31.2936   -1.2366   -3.3169 C.ar      12 UNK        -0.0944 
     11 C11        31.6887    0.1005   -3.2038 C.ar      12 UNK        -0.0787 
     12 C12        31.1918    0.8797   -2.1554 C.ar      12 UNK        -0.0862 
     13 C13        30.3040    0.3319   -1.2242 C.ar      12 UNK        -0.0733 
     14 C14        29.9385   -1.0130   -1.3306 C.ar      12 UNK        -0.0832 
     15 C15        29.7079    1.2008   -0.1255 C.3       12 UNK         0.0240 
     16 S16        27.9442    1.5586   -0.4283 S.3       12 UNK        -0.2522 
     17 C17        28.0003    2.3701   -2.0627 C.3       12 UNK        -0.0967 
     18 CA         27.6335    1.3820   -3.2080 C.3       5 UNK         0.0660 
     19 N          26.2450    0.9169   -3.1297 N.am      5 UNK        -0.4015 
     20 C          25.1324    1.6105   -3.4036 C.2       4 UNK         0.4946 
     21 O          25.1228    2.7390   -3.9019 O.2       4 UNK        -0.5353 
     22 CA         23.8006    0.9229   -3.0417 C.3       4 UNK         0.0277 
     23 CB         22.7204    1.9505   -2.6565 C.3       4 UNK        -0.1981 
     24 N          23.2762    0.0679   -4.1090 N.am      4 UNK        -0.4209 
     25 C          23.8609   -1.0381   -4.5850 C.2       3 UNK         0.4942 
     26 O          24.9496   -1.4646   -4.1912 O.2       3 UNK        -0.5208 
     27 CA         23.0880   -1.8101   -5.6641 C.3       3 UNK         0.0250 
     28 CB         22.7777   -0.9447   -6.9008 C.3       3 UNK        -0.1990 
     29 N          23.8903   -2.9605   -6.0605 N.am      3 UNK        -0.4232 
     30 C          23.4427   -4.1188   -6.5527 C.2       2 UNK         0.4993 
     31 O          22.2493   -4.3640   -6.7358 O.2       2 UNK        -0.5286 
     32 CA         24.4960   -5.1788   -6.9291 C.3       2 UNK         0.0209 
     33 CB         24.3736   -5.5609   -8.4150 C.3       2 UNK        -0.1931 
     34 N          25.8737   -4.7402   -6.6809 N.am      2 UNK        -0.4546 
     35 C          26.5516   -4.8929   -5.5346 C.2       1 UNK         0.5154 
     36 O          26.0683   -5.4311   -4.5380 O.2       1 UNK        -0.5181 
     37 C          27.9745    1.9076   -4.6156 C.2       5 UNK         0.5014 
     38 O          28.1262    1.1029   -5.5341 O.2       5 UNK        -0.5248 
     39 N          28.0589    3.2374   -4.7742 N.am      6 UNK        -0.4434 
     40 CA         28.3669    3.9348   -6.0268 C.3       6 UNK         0.0363 
     41 CB         28.4543    5.4447   -5.7537 C.3       6 UNK        -0.1936 
     42 C          27.3850    3.6529   -7.1806 C.2       6 UNK         0.5081 
     43 O          27.7569    3.8392   -8.3391 O.2       6 UNK        -0.5248 
     44 N          26.1697    3.1837   -6.8611 N.am      7 UNK        -0.4718 
     45 CA         25.1758    2.7186   -7.8322 C.3       7 UNK         0.0273 
     46 CB         23.8351    2.5091   -7.1123 C.3       7 UNK        -0.1935 
     47 C          25.5944    1.4439   -8.5960 C.2       7 UNK         0.5018 
     48 O          25.0542    1.1959   -9.6744 O.2       7 UNK        -0.5186 
     49 N          26.5420    0.6701   -8.0492 N.am      8 UNK        -0.4240 
     50 CA         27.1436   -0.5021   -8.6814 C.3       8 UNK         0.0235 
     51 CB         26.3492   -1.7671   -8.3110 C.3       8 UNK        -0.2000 
     52 C          28.6125   -0.5617   -8.2470 C.2       8 UNK         0.4941 
     53 O          29.0095   -1.4865   -7.5333 O.2       8 UNK        -0.5273 
     54 N          29.3681    0.4752   -8.6329 N.am      9 UNK        -0.4262 
     55 CA         30.7258    0.7853   -8.1817 C.3       9 UNK         0.0264 
     56 CB         31.1044    2.1904   -8.6881 C.3       9 UNK        -0.1955 
     57 C          31.7901   -0.2620   -8.5678 C.2       9 UNK         0.5031 
     58 O          32.6227   -0.0053   -9.4406 O.2       9 UNK        -0.5390 
     59 N          31.7950   -1.3976   -7.8563 N.am      10 UNK        -0.4204 
     60 CA         32.8242   -2.4485   -7.9136 C.3       10 UNK         0.0237 
     61 CB         32.4360   -3.5879   -6.9576 C.3       10 UNK        -0.1985 
     62 C          34.2434   -1.9514   -7.5713 C.2       10 UNK         0.4970 
     63 O          35.2241   -2.5607   -7.9986 O.2       10 UNK        -0.4914 
     64 N          34.3105   -0.8515   -6.8137 N.am      11 UNK        -0.4285 
     65 CA         35.5176   -0.1029   -6.4473 C.3       11 UNK         0.1007 
     66 C          36.2454    0.5736   -7.6471 C.2       11 UNK         0.5703 
     67 N          35.6181    0.7326   -8.8086 N.am      11 UNK        -0.7361 
     68 O          37.4043    0.9606   -7.5183 O.2       11 UNK        -0.4986 
     69 C69        35.2060    0.9461   -5.3442 C.3       12 UNK        -0.0947 
     70 S70        34.3648    0.2406   -3.8842 S.3       12 UNK        -0.2240 
     71 C71        32.6377    0.7064   -4.2248 C.3       12 UNK         0.0194 
     72 H72        30.3751   -5.2050   -9.2751 H         1 UNK         0.0906 
     73 H73        28.7236   -5.0056   -9.8663 H         1 UNK         0.0906 
     74 H74        29.5751   -3.6400   -9.1405 H         1 UNK         0.0906 
     75 H75        28.7215   -3.1947   -7.1163 H         1 UNK         0.3140 
     76 H76        28.6103   -5.1678   -5.0457 H         1 UNK         0.1085 
     77 H77        29.0932   -2.5688   -4.9219 H         1 UNK         0.0836 
     78 H78        27.3743   -2.3763   -4.8571 H         1 UNK         0.0836 
     79 H79        30.2129   -3.7574   -1.5413 H         1 UNK         0.0731 
     80 H80        30.5896   -3.7850   -3.2452 H         1 UNK         0.0731 
     81 H81        31.6747   -1.8388   -4.1291 H         1 UNK         0.1312 
     82 H82        31.4845    1.9177   -2.0741 H         1 UNK         0.1406 
     83 H83        29.2506   -1.4401   -0.6130 H         1 UNK         0.1631 
     84 H84        30.2543    2.1406   -0.0319 H         1 UNK         0.0717 
     85 H85        29.8076    0.6917    0.8342 H         1 UNK         0.0717 
     86 H86        27.3110    3.2161   -2.0414 H         1 UNK         0.0934 
     87 H87        28.9965    2.7925   -2.2062 H         1 UNK         0.0934 
     88 H88        28.2454    0.4872   -3.0916 H         1 UNK         0.0739 
     89 H89        26.1298   -0.0519   -2.8606 H         1 UNK         0.3093 
     90 H90        23.9795    0.2931   -2.1673 H         1 UNK         0.0818 
     91 H91        21.8179    1.4615   -2.2894 H         1 UNK         0.0819 
     92 H92        23.0752    2.6096   -1.8629 H         1 UNK         0.0819 
     93 H93        22.4415    2.5815   -3.5016 H         1 UNK         0.0819 
     94 H94        22.3856    0.3434   -4.4966 H         1 UNK         0.3041 
     95 H95        22.1549   -2.1603   -5.2177 H         1 UNK         0.0784 
     96 H96        22.2770   -1.5257   -7.6755 H         1 UNK         0.0793 
     97 H97        22.1174   -0.1133   -6.6537 H         1 UNK         0.0793 
     98 H98        23.6857   -0.5287   -7.3357 H         1 UNK         0.0793 
     99 H99        24.8711   -2.8741   -5.8282 H         1 UNK         0.3024 
    100 H100       24.2863   -6.0664   -6.3277 H         1 UNK         0.1171 
    101 H101       24.5420   -4.7033   -9.0678 H         1 UNK         0.0786 
    102 H102       23.3801   -5.9514   -8.6400 H         1 UNK         0.0786 
    103 H103       25.0912   -6.3359   -8.6856 H         1 UNK         0.0786 
    104 H104       26.3604   -4.3143   -7.4552 H         1 UNK         0.2977 
    105 H105       27.8514    3.8242   -3.9795 H         1 UNK         0.3127 
    106 H106       29.3501    3.5890   -6.3495 H         1 UNK         0.0770 
    107 H107       27.5048    5.8449   -5.3955 H         1 UNK         0.0814 
    108 H108       28.7160    5.9909   -6.6612 H         1 UNK         0.0814 
    109 H109       29.2189    5.6721   -5.0108 H         1 UNK         0.0814 
    110 H110       25.9369    3.0728   -5.8793 H         1 UNK         0.2983 
    111 H111       25.0428    3.5063   -8.5771 H         1 UNK         0.0947 
    112 H112       23.0648    2.1679   -7.8053 H         1 UNK         0.0806 
    113 H113       23.4784    3.4351   -6.6610 H         1 UNK         0.0806 
    114 H114       23.9204    1.7659   -6.3207 H         1 UNK         0.0806 
    115 H115       26.9653    0.9498   -7.1666 H         1 UNK         0.3000 
    116 H116       27.1321   -0.3893   -9.7678 H         1 UNK         0.0850 
    117 H117       26.3193   -1.9088   -7.2308 H         1 UNK         0.0810 
    118 H118       25.3231   -1.7119   -8.6740 H         1 UNK         0.0810 
    119 H119       26.8008   -2.6523   -8.7588 H         1 UNK         0.0810 
    120 H120       28.9335    1.1759   -9.2164 H         1 UNK         0.3040 
    121 H121       30.6964    0.8298   -7.0908 H         1 UNK         0.0766 
    122 H122       30.4000    2.9464   -8.3450 H         1 UNK         0.0812 
    123 H123       31.1294    2.2328   -9.7778 H         1 UNK         0.0812 
    124 H124       32.0916    2.4837   -8.3283 H         1 UNK         0.0812 
    125 H125       30.9877   -1.5645   -7.2636 H         1 UNK         0.3205 
    126 H126       32.8455   -2.8362   -8.9340 H         1 UNK         0.0754 
    127 H127       33.1480   -4.4119   -7.0229 H         1 UNK         0.0769 
    128 H128       31.4560   -3.9929   -7.1955 H         1 UNK         0.0769 
    129 H129       32.4166   -3.2573   -5.9189 H         1 UNK         0.0769 
    130 H130       33.4427   -0.4461   -6.5064 H         1 UNK         0.2981 
    131 H131       36.2214   -0.8261   -6.0316 H         1 UNK         0.0541 
    132 H132       36.1071    1.1704   -9.5729 H         1 UNK         0.3459 
    133 H133       34.6637    0.4193   -8.9370 H         1 UNK         0.3459 
    134 H134       34.6002    1.7601   -5.7472 H         1 UNK         0.0612 
    135 H135       36.1316    1.4065   -4.9938 H         1 UNK         0.0612 
    136 H136       32.5534    1.7944   -4.2281 H         1 UNK         0.0624 
    137 H137       32.3509    0.3731   -5.2217 H         1 UNK         0.0624 
@<TRIPOS>BOND
     1    1    2 1    
     2    1   72 1    
     3    1   73 1    
     4    1   74 1    
     5    2    3 2    
     6    2    4 am   BACKBONE|DICT|INTERRES
     7    4    5 1    
     8    4   75 1    
     9    5    6 1    
    10    5   35 1    
    11    5   76 1    
    12    6    7 1    
    13    6   77 1    
    14    6   78 1    
    15    7    8 1    
    16    8    9 1    
    17    8   79 1    
    18    8   80 1    
    19    9   10 ar   
    20    9   14 ar   
    21   10   11 ar   
    22   10   81 1    
    23   11   12 ar   
    24   11   71 1    
    25   12   13 ar   
    26   12   82 1    
    27   13   14 ar   
    28   13   15 1    
    29   14   83 1    
    30   15   16 1    
    31   15   84 1    
    32   15   85 1    
    33   16   17 1    
    34   17   18 1    
    35   17   86 1    
    36   17   87 1    
    37   18   19 1    
    38   18   37 1    
    39   18   88 1    
    40   19   20 am   BACKBONE|DICT|INTERRES
    41   19   89 1    
    42   20   21 2    
    43   20   22 1    
    44   22   23 1    
    45   22   24 1    
    46   22   90 1    
    47   23   91 1    
    48   23   92 1    
    49   23   93 1    
    50   24   25 am   BACKBONE|DICT|INTERRES
    51   24   94 1    
    52   25   26 2    
    53   25   27 1    
    54   27   28 1    
    55   27   29 1    
    56   27   95 1    
    57   28   96 1    
    58   28   97 1    
    59   28   98 1    
    60   29   30 am   BACKBONE|DICT|INTERRES
    61   29   99 1    
    62   30   31 2    
    63   30   32 1    
    64   32   33 1    
    65   32   34 1    
    66   32  100 1    
    67   33  101 1    
    68   33  102 1    
    69   33  103 1    
    70   34   35 am   BACKBONE|DICT|INTERRES
    71   34  104 1    
    72   35   36 2    
    73   37   38 2    
    74   37   39 am   BACKBONE|DICT|INTERRES
    75   39   40 1    
    76   39  105 1    
    77   40   41 1    
    78   40   42 1    
    79   40  106 1    
    80   41  107 1    
    81   41  108 1    
    82   41  109 1    
    83   42   43 2    
    84   42   44 am   BACKBONE|DICT|INTERRES
    85   44   45 1    
    86   44  110 1    
    87   45   46 1    
    88   45   47 1    
    89   45  111 1    
    90   46  112 1    
    91   46  113 1    
    92   46  114 1    
    93   47   48 2    
    94   47   49 am   BACKBONE|DICT|INTERRES
    95   49   50 1    
    96   49  115 1    
    97   50   51 1    
    98   50   52 1    
    99   50  116 1    
   100   51  117 1    
   101   51  118 1    
   102   51  119 1    
   103   52   53 2    
   104   52   54 am   BACKBONE|DICT|INTERRES
   105   54   55 1    
   106   54  120 1    
   107   55   56 1    
   108   55   57 1    
   109   55  121 1    
   110   56  122 1    
   111   56  123 1    
   112   56  124 1    
   113   57   58 2    
   114   57   59 am   BACKBONE|DICT|INTERRES
   115   59   60 1    
   116   59  125 1    
   117   60   61 1    
   118   60   62 1    
   119   60  126 1    
   120   61  127 1    
   121   61  128 1    
   122   61  129 1    
   123   62   63 2    
   124   62   64 am   BACKBONE|DICT|INTERRES
   125   64   65 1    
   126   64  130 1    
   127   65   66 1    
   128   65   69 1    
   129   65  131 1    
   130   66   67 am   BACKBONE|DICT|INTERRES
   131   66   68 2    
   132   67  132 1    
   133   67  133 1    
   134   69   70 1    
   135   69  134 1    
   136   69  135 1    
   137   70   71 1    
   138   71  136 1    
   139   71  137 1    
@<TRIPOS>SUBSTRUCTURE
     1 UNK         1 GROUP             0       ****    0 ROOT    
