@<TRIPOS>MOLECULE
3R137
137   139    1
SMALL
USER_CHARGES


@<TRIPOS>ATOM
      1 CA         25.2882   -6.4000   -1.2554 C.3       0 UNK        -0.2020 
      2 C          26.3392   -5.8870   -2.2361 C.2       0 UNK         0.4855 
      3 O          26.3119   -6.2743   -3.4017 O.2       0 UNK        -0.5197 
      4 N          27.2820   -5.0282   -1.8219 N.am      1 UNK        -0.4892 
      5 CA         27.4297   -4.4702   -0.4682 C.3       1 UNK         0.0835 
      6 C6         28.8930   -4.0712   -0.1535 C.3       12 UNK        -0.0855 
      7 S7         29.9883   -5.5340   -0.1295 S.3       12 UNK        -0.2931 
      8 C8         31.5785   -4.8466   -0.7154 C.3       12 UNK         0.0378 
      9 C9         31.5936   -4.3320   -2.1566 C.ar      12 UNK        -0.0802 
     10 C10        32.6090   -3.4474   -2.5395 C.ar      12 UNK        -0.0944 
     11 C11        32.6602   -2.9405   -3.8411 C.ar      12 UNK        -0.0787 
     12 C12        31.6841   -3.3161   -4.7630 C.ar      12 UNK        -0.0862 
     13 C13        30.6497   -4.1763   -4.3936 C.ar      12 UNK        -0.0733 
     14 C14        30.6311   -4.7110   -3.1031 C.ar      12 UNK        -0.0832 
     15 C15        29.5307   -4.4916   -5.3748 C.3       12 UNK         0.0240 
     16 S16        28.0367   -3.5132   -5.0044 S.3       12 UNK        -0.2522 
     17 C17        28.5787   -1.8045   -5.3582 C.3       12 UNK        -0.0967 
     18 CA         27.7606   -1.1490   -6.4939 C.3       5 UNK         0.0660 
     19 N          26.3369   -1.0462   -6.1595 N.am      5 UNK        -0.4015 
     20 C          25.3681   -0.7696   -7.0450 C.2       4 UNK         0.4946 
     21 O          25.5724   -0.6017   -8.2463 O.2       4 UNK        -0.5353 
     22 CA         23.9366   -0.5990   -6.5003 C.3       4 UNK         0.0277 
     23 CB         23.2123   -1.9538   -6.4651 C.3       4 UNK        -0.1981 
     24 N          23.8901    0.0134   -5.1700 N.am      4 UNK        -0.4209 
     25 C          24.4072    1.2103   -4.8581 C.2       3 UNK         0.4942 
     26 O          24.8701    1.9850   -5.6941 O.2       3 UNK        -0.5208 
     27 CA         24.4856    1.5933   -3.3682 C.3       3 UNK         0.0250 
     28 CB         23.3886    2.6132   -3.0240 C.3       3 UNK        -0.1990 
     29 N          24.4196    0.4730   -2.4183 N.am      3 UNK        -0.4232 
     30 C          25.2219   -0.6020   -2.3949 C.2       2 UNK         0.4993 
     31 O          26.0992   -0.8265   -3.2340 O.2       2 UNK        -0.5286 
     32 CA         24.9601   -1.6104   -1.2699 C.3       2 UNK         0.0209 
     33 CB         23.5704   -2.2627   -1.4116 C.3       2 UNK        -0.1931 
     34 N          25.9772   -2.6584   -1.2959 N.am      2 UNK        -0.4546 
     35 C          26.4617   -3.2940   -0.2221 C.2       1 UNK         0.5154 
     36 O          26.1391   -3.0156    0.9336 O.2       1 UNK        -0.5181 
     37 C          28.3583    0.2230   -6.8668 C.2       5 UNK         0.5014 
     38 O          29.1926    0.2948   -7.7716 O.2       5 UNK        -0.5248 
     39 N          27.9105    1.2873   -6.1843 N.am      6 UNK        -0.4434 
     40 CA         28.2885    2.6702   -6.4780 C.3       6 UNK         0.0363 
     41 CB         27.9336    3.5799   -5.2912 C.3       6 UNK        -0.1936 
     42 C          27.6396    3.1712   -7.7771 C.2       6 UNK         0.5081 
     43 O          28.3144    3.8239   -8.5713 O.2       6 UNK        -0.5248 
     44 N          26.3662    2.8145   -8.0027 N.am      7 UNK        -0.4718 
     45 CA         25.6271    3.0879   -9.2407 C.3       7 UNK         0.0273 
     46 CB         24.1533    2.6929   -9.0615 C.3       7 UNK        -0.1935 
     47 C          26.2363    2.3861  -10.4683 C.2       7 UNK         0.5018 
     48 O          26.3003    2.9884  -11.5402 O.2       7 UNK        -0.5186 
     49 N          26.7157    1.1484  -10.2778 N.am      8 UNK        -0.4240 
     50 CA         27.4866    0.3822  -11.2622 C.3       8 UNK         0.0235 
     51 CB         27.4899   -1.0991  -10.8479 C.3       8 UNK        -0.2000 
     52 C          28.9330    0.8843  -11.4491 C.2       8 UNK         0.4941 
     53 O          29.5972    0.4344  -12.3837 O.2       8 UNK        -0.5273 
     54 N          29.3983    1.7803  -10.5641 N.am      9 UNK        -0.4262 
     55 CA         30.7437    2.3590  -10.4902 C.3       9 UNK         0.0264 
     56 CB         31.0301    3.2495  -11.7183 C.3       9 UNK        -0.1955 
     57 C          31.8414    1.3092  -10.2314 C.2       9 UNK         0.5031 
     58 O          32.9453    1.4312  -10.7669 O.2       9 UNK        -0.5390 
     59 N          31.5293    0.3007   -9.4042 N.am      10 UNK        -0.4204 
     60 CA         32.4684   -0.7470   -8.9931 C.3       10 UNK         0.0237 
     61 CB         31.6821   -1.9415   -8.4331 C.3       10 UNK        -0.1985 
     62 C          33.5080   -0.2399   -7.9767 C.2       10 UNK         0.4970 
     63 O          34.6408   -0.7224   -7.9806 O.2       10 UNK        -0.4914 
     64 N          33.1115    0.7363   -7.1547 N.am      11 UNK        -0.4285 
     65 CA         33.9449    1.4854   -6.2088 C.3       11 UNK         0.1007 
     66 C          33.2213    2.7865   -5.7677 C.2       11 UNK         0.5703 
     67 N          33.9043    3.6697   -5.0519 N.am      11 UNK        -0.7361 
     68 O          32.0516    3.0118   -6.0775 O.2       11 UNK        -0.4986 
     69 C69        34.4771    0.6347   -5.0172 C.3       12 UNK        -0.0947 
     70 S70        33.1775   -0.2496   -4.0885 S.3       12 UNK        -0.2240 
     71 C71        33.7478   -1.9676   -4.2610 C.3       12 UNK         0.0194 
     72 H72        24.7317   -5.5789   -0.8051 H         1 UNK         0.0906 
     73 H73        25.7507   -6.9915   -0.4658 H         1 UNK         0.0906 
     74 H74        24.5699   -7.0395   -1.7681 H         1 UNK         0.0906 
     75 H75        27.9428   -4.6868   -2.5048 H         1 UNK         0.3140 
     76 H76        27.1539   -5.2382    0.2569 H         1 UNK         0.1085 
     77 H77        28.9632   -3.5941    0.8263 H         1 UNK         0.0836 
     78 H78        29.2555   -3.3380   -0.8765 H         1 UNK         0.0836 
     79 H79        31.8708   -4.0433   -0.0369 H         1 UNK         0.0731 
     80 H80        32.3406   -5.6212   -0.6217 H         1 UNK         0.0731 
     81 H81        33.3593   -3.1459   -1.8210 H         1 UNK         0.1312 
     82 H82        31.7170   -2.9101   -5.7619 H         1 UNK         0.1406 
     83 H83        29.8465   -5.4038   -2.8379 H         1 UNK         0.1631 
     84 H84        29.2821   -5.5525   -5.3194 H         1 UNK         0.0717 
     85 H85        29.8449   -4.3017   -6.4025 H         1 UNK         0.0717 
     86 H86        28.4996   -1.2249   -4.4365 H         1 UNK         0.0934 
     87 H87        29.6360   -1.8026   -5.6175 H         1 UNK         0.0934 
     88 H88        27.8475   -1.7834   -7.3788 H         1 UNK         0.0739 
     89 H89        26.1051   -1.1396   -5.1742 H         1 UNK         0.3093 
     90 H90        23.3988    0.0601   -7.1840 H         1 UNK         0.0818 
     91 H91        22.1705   -1.8405   -6.1649 H         1 UNK         0.0819 
     92 H92        23.2141   -2.4213   -7.4510 H         1 UNK         0.0819 
     93 H93        23.6890   -2.6501   -5.7737 H         1 UNK         0.0819 
     94 H94        23.5277   -0.5548   -4.4191 H         1 UNK         0.3041 
     95 H95        25.4544    2.0754   -3.2222 H         1 UNK         0.0784 
     96 H96        23.4294    3.4732   -3.6946 H         1 UNK         0.0793 
     97 H97        22.3918    2.1789   -3.1120 H         1 UNK         0.0793 
     98 H98        23.5025    2.9938   -2.0088 H         1 UNK         0.0793 
     99 H99        23.7185    0.5559   -1.6956 H         1 UNK         0.3024 
    100 H100       25.0157   -1.0661   -0.3240 H         1 UNK         0.1171 
    101 H101       22.7707   -1.5229   -1.3633 H         1 UNK         0.0786 
    102 H102       23.3873   -2.9788   -0.6101 H         1 UNK         0.0786 
    103 H103       23.4704   -2.7937   -2.3592 H         1 UNK         0.0786 
    104 H104       26.3410   -2.8810   -2.2140 H         1 UNK         0.2977 
    105 H105       27.1944    1.1499   -5.4857 H         1 UNK         0.3127 
    106 H106       29.3718    2.7040   -6.6140 H         1 UNK         0.0770 
    107 H107       26.8602    3.6130   -5.1049 H         1 UNK         0.0814 
    108 H108       28.2610    4.6033   -5.4792 H         1 UNK         0.0814 
    109 H109       28.4247    3.2473   -4.3766 H         1 UNK         0.0814 
    110 H110       25.8591    2.3380   -7.2598 H         1 UNK         0.2983 
    111 H111       25.6732    4.1643   -9.4200 H         1 UNK         0.0947 
    112 H112       23.5693    2.9588   -9.9435 H         1 UNK         0.0806 
    113 H113       23.7053    3.2028   -8.2083 H         1 UNK         0.0806 
    114 H114       24.0397    1.6200   -8.9081 H         1 UNK         0.0806 
    115 H115       26.5308    0.6882   -9.3904 H         1 UNK         0.3000 
    116 H116       26.9865    0.4670  -12.2292 H         1 UNK         0.0850 
    117 H117       28.0178   -1.7116  -11.5800 H         1 UNK         0.0810 
    118 H118       26.4759   -1.4916  -10.7691 H         1 UNK         0.0810 
    119 H119       27.9812   -1.2451   -9.8852 H         1 UNK         0.0810 
    120 H120       28.7659    2.0920   -9.8372 H         1 UNK         0.3040 
    121 H121       30.7428    3.0065   -9.6122 H         1 UNK         0.0766 
    122 H122       31.1094    2.6638  -12.6345 H         1 UNK         0.0812 
    123 H123       30.2444    3.9916  -11.8602 H         1 UNK         0.0812 
    124 H124       31.9686    3.7919  -11.5976 H         1 UNK         0.0812 
    125 H125       30.6077    0.2892   -8.9674 H         1 UNK         0.3205 
    126 H126       33.0123   -1.0866   -9.8773 H         1 UNK         0.0754 
    127 H127       32.3547   -2.7426   -8.1239 H         1 UNK         0.0769 
    128 H128       31.0064   -2.3554   -9.1819 H         1 UNK         0.0769 
    129 H129       31.0842   -1.6543   -7.5692 H         1 UNK         0.0769 
    130 H130       32.1643    1.0853   -7.2207 H         1 UNK         0.2981 
    131 H131       34.8101    1.8269   -6.7799 H         1 UNK         0.0541 
    132 H132       34.8649    3.5053   -4.7952 H         1 UNK         0.3459 
    133 H133       33.4469    4.5198   -4.7624 H         1 UNK         0.3459 
    134 H134       35.0335    1.2553   -4.3135 H         1 UNK         0.0612 
    135 H135       35.2061   -0.0856   -5.3897 H         1 UNK         0.0612 
    136 H136       34.0274   -2.1586   -5.2986 H         1 UNK         0.0624 
    137 H137       34.6480   -2.1136   -3.6622 H         1 UNK         0.0624 
@<TRIPOS>BOND
     1    1    2 1    
     2    1   72 1    
     3    1   73 1    
     4    1   74 1    
     5    2    3 2    
     6    2    4 am   BACKBONE|DICT|INTERRES
     7    4    5 1    
     8    4   75 1    
     9    5    6 1    
    10    5   35 1    
    11    5   76 1    
    12    6    7 1    
    13    6   77 1    
    14    6   78 1    
    15    7    8 1    
    16    8    9 1    
    17    8   79 1    
    18    8   80 1    
    19    9   10 ar   
    20    9   14 ar   
    21   10   11 ar   
    22   10   81 1    
    23   11   12 ar   
    24   11   71 1    
    25   12   13 ar   
    26   12   82 1    
    27   13   14 ar   
    28   13   15 1    
    29   14   83 1    
    30   15   16 1    
    31   15   84 1    
    32   15   85 1    
    33   16   17 1    
    34   17   18 1    
    35   17   86 1    
    36   17   87 1    
    37   18   19 1    
    38   18   37 1    
    39   18   88 1    
    40   19   20 am   BACKBONE|DICT|INTERRES
    41   19   89 1    
    42   20   21 2    
    43   20   22 1    
    44   22   23 1    
    45   22   24 1    
    46   22   90 1    
    47   23   91 1    
    48   23   92 1    
    49   23   93 1    
    50   24   25 am   BACKBONE|DICT|INTERRES
    51   24   94 1    
    52   25   26 2    
    53   25   27 1    
    54   27   28 1    
    55   27   29 1    
    56   27   95 1    
    57   28   96 1    
    58   28   97 1    
    59   28   98 1    
    60   29   30 am   BACKBONE|DICT|INTERRES
    61   29   99 1    
    62   30   31 2    
    63   30   32 1    
    64   32   33 1    
    65   32   34 1    
    66   32  100 1    
    67   33  101 1    
    68   33  102 1    
    69   33  103 1    
    70   34   35 am   BACKBONE|DICT|INTERRES
    71   34  104 1    
    72   35   36 2    
    73   37   38 2    
    74   37   39 am   BACKBONE|DICT|INTERRES
    75   39   40 1    
    76   39  105 1    
    77   40   41 1    
    78   40   42 1    
    79   40  106 1    
    80   41  107 1    
    81   41  108 1    
    82   41  109 1    
    83   42   43 2    
    84   42   44 am   BACKBONE|DICT|INTERRES
    85   44   45 1    
    86   44  110 1    
    87   45   46 1    
    88   45   47 1    
    89   45  111 1    
    90   46  112 1    
    91   46  113 1    
    92   46  114 1    
    93   47   48 2    
    94   47   49 am   BACKBONE|DICT|INTERRES
    95   49   50 1    
    96   49  115 1    
    97   50   51 1    
    98   50   52 1    
    99   50  116 1    
   100   51  117 1    
   101   51  118 1    
   102   51  119 1    
   103   52   53 2    
   104   52   54 am   BACKBONE|DICT|INTERRES
   105   54   55 1    
   106   54  120 1    
   107   55   56 1    
   108   55   57 1    
   109   55  121 1    
   110   56  122 1    
   111   56  123 1    
   112   56  124 1    
   113   57   58 2    
   114   57   59 am   BACKBONE|DICT|INTERRES
   115   59   60 1    
   116   59  125 1    
   117   60   61 1    
   118   60   62 1    
   119   60  126 1    
   120   61  127 1    
   121   61  128 1    
   122   61  129 1    
   123   62   63 2    
   124   62   64 am   BACKBONE|DICT|INTERRES
   125   64   65 1    
   126   64  130 1    
   127   65   66 1    
   128   65   69 1    
   129   65  131 1    
   130   66   67 am   BACKBONE|DICT|INTERRES
   131   66   68 2    
   132   67  132 1    
   133   67  133 1    
   134   69   70 1    
   135   69  134 1    
   136   69  135 1    
   137   70   71 1    
   138   71  136 1    
   139   71  137 1    
@<TRIPOS>SUBSTRUCTURE
     1 UNK         1 GROUP             0       ****    0 ROOT    
