@<TRIPOS>MOLECULE
3R137
137   139    1
SMALL
USER_CHARGES


@<TRIPOS>ATOM
      1 CA         26.1307   -2.2845    3.6068 C.3       0 UNK        -0.2020 
      2 C          26.1431   -2.8468    2.1932 C.2       0 UNK         0.4855 
      3 O          25.7330   -3.9900    1.9928 O.2       0 UNK        -0.5197 
      4 N          26.6097   -2.0467    1.2229 N.am      1 UNK        -0.4892 
      5 CA         26.7192   -2.3705   -0.2093 C.3       1 UNK         0.0835 
      6 C6         27.7589   -3.4832   -0.5264 C.3       12 UNK        -0.0855 
      7 S7         29.4199   -3.1202    0.1466 S.3       12 UNK        -0.2931 
      8 C8         30.4863   -3.2408   -1.3355 C.3       12 UNK         0.0378 
      9 C9         30.4516   -2.0547   -2.3045 C.ar      12 UNK        -0.0802 
     10 C10        31.1968   -2.1477   -3.4845 C.ar      12 UNK        -0.0944 
     11 C11        31.2228   -1.0963   -4.4056 C.ar      12 UNK        -0.0787 
     12 C12        30.4857    0.0613   -4.1484 C.ar      12 UNK        -0.0862 
     13 C13        29.7165    0.1643   -2.9852 C.ar      12 UNK        -0.0733 
     14 C14        29.7232   -0.8832   -2.0598 C.ar      12 UNK        -0.0832 
     15 C15        28.8600    1.3966   -2.7326 C.3       12 UNK         0.0240 
     16 S16        27.5712    1.6042   -4.0045 S.3       12 UNK        -0.2522 
     17 C17        26.5764    0.0770   -3.8317 C.3       12 UNK        -0.0967 
     18 CA         26.9612   -1.0454   -4.8327 C.3       5 UNK         0.0660 
     19 N          26.1959   -2.2708   -4.5989 N.am      5 UNK        -0.4015 
     20 C          26.5678   -3.4784   -5.0547 C.2       4 UNK         0.4946 
     21 O          27.6325   -3.6796   -5.6400 O.2       4 UNK        -0.5353 
     22 CA         25.6220   -4.6743   -4.8368 C.3       4 UNK         0.0277 
     23 CB         26.2587   -5.7177   -3.9017 C.3       4 UNK        -0.1981 
     24 N          24.3111   -4.2816   -4.3148 N.am      4 UNK        -0.4209 
     25 C          23.2801   -3.9035   -5.0863 C.2       3 UNK         0.4942 
     26 O          23.3168   -3.9082   -6.3173 O.2       3 UNK        -0.5208 
     27 CA         21.9855   -3.4368   -4.3906 C.3       3 UNK         0.0250 
     28 CB         20.9157   -4.5396   -4.4533 C.3       3 UNK        -0.1990 
     29 N          22.1550   -3.0167   -2.9966 N.am      3 UNK        -0.4232 
     30 C          22.8990   -1.9818   -2.5848 C.2       2 UNK         0.4993 
     31 O          23.5393   -1.2592   -3.3500 O.2       2 UNK        -0.5286 
     32 CA         22.9998   -1.7365   -1.0653 C.3       2 UNK         0.0209 
     33 CB         22.1870   -2.7313   -0.2042 C.3       2 UNK        -0.1931 
     34 N          24.3960   -1.7097   -0.6094 N.am      2 UNK        -0.4546 
     35 C          25.3330   -2.6464   -0.8310 C.2       1 UNK         0.5154 
     36 O          25.1300   -3.6788   -1.4738 O.2       1 UNK        -0.5181 
     37 C          26.7928   -0.6001   -6.2992 C.2       5 UNK         0.5014 
     38 O          25.6631   -0.4964   -6.7835 O.2       5 UNK        -0.5248 
     39 N          27.9190   -0.3043   -6.9541 N.am      6 UNK        -0.4434 
     40 CA         27.9970    0.2845   -8.2884 C.3       6 UNK         0.0363 
     41 CB         28.0985   -0.8227   -9.3538 C.3       6 UNK        -0.1936 
     42 C          29.1644    1.2804   -8.3212 C.2       6 UNK         0.5081 
     43 O          29.9796    1.2576   -9.2463 O.2       6 UNK        -0.5248 
     44 N          29.2323    2.1395   -7.2912 N.am      7 UNK        -0.4718 
     45 CA         30.2894    3.1351   -7.0691 C.3       7 UNK         0.0273 
     46 CB         30.0218    3.8905   -5.7582 C.3       7 UNK        -0.1935 
     47 C          30.4808    4.1330   -8.2229 C.2       7 UNK         0.5018 
     48 O          31.6101    4.5592   -8.4609 O.2       7 UNK        -0.5186 
     49 N          29.4011    4.4329   -8.9594 N.am      8 UNK        -0.4240 
     50 CA         29.4083    5.2603  -10.1718 C.3       8 UNK         0.0235 
     51 CB         27.9623    5.4656  -10.6514 C.3       8 UNK        -0.2000 
     52 C          30.2773    4.6939  -11.3131 C.2       8 UNK         0.4941 
     53 O          30.7677    5.4709  -12.1330 O.2       8 UNK        -0.5273 
     54 N          30.4683    3.3677  -11.3321 N.am      9 UNK        -0.4262 
     55 CA         31.3621    2.6508  -12.2433 C.3       9 UNK         0.0264 
     56 CB         30.5531    1.5390  -12.9361 C.3       9 UNK        -0.1955 
     57 C          32.5740    2.0576  -11.4990 C.2       9 UNK         0.5031 
     58 O          33.3018    1.2591  -12.0912 O.2       9 UNK        -0.5390 
     59 N          32.7441    2.3971  -10.2090 N.am      10 UNK        -0.4204 
     60 CA         33.7106    1.8379   -9.2518 C.3       10 UNK         0.0237 
     61 CB         35.1338    2.3357   -9.5799 C.3       10 UNK        -0.1985 
     62 C          33.6352    0.2998   -9.1196 C.2       10 UNK         0.4970 
     63 O          34.6516   -0.3360   -8.8347 O.2       10 UNK        -0.4914 
     64 N          32.4442   -0.2679   -9.3620 N.am      11 UNK        -0.4285 
     65 CA         32.1832   -1.7073   -9.5280 C.3       11 UNK         0.1007 
     66 C          32.9493   -2.3793  -10.7124 C.2       11 UNK         0.5703 
     67 N          33.4375   -1.6368  -11.7001 N.am      11 UNK        -0.7361 
     68 O          33.0749   -3.6009  -10.7640 O.2       11 UNK        -0.4986 
     69 C69        32.2925   -2.5002   -8.1950 C.3       12 UNK        -0.0947 
     70 S70        31.0248   -1.9988   -6.9846 S.3       12 UNK        -0.2240 
     71 C71        32.0311   -1.2281   -5.6858 C.3       12 UNK         0.0194 
     72 H72        26.7290   -2.9137    4.2651 H         1 UNK         0.0906 
     73 H73        26.5330   -1.2726    3.6491 H         1 UNK         0.0906 
     74 H74        25.1117   -2.2606    3.9920 H         1 UNK         0.0906 
     75 H75        26.9362   -1.1245    1.4771 H         1 UNK         0.3140 
     76 H76        27.0641   -1.4590   -0.6950 H         1 UNK         0.1085 
     77 H77        27.8375   -3.6218   -1.6064 H         1 UNK         0.0836 
     78 H78        27.4301   -4.4424   -0.1227 H         1 UNK         0.0836 
     79 H79        30.2351   -4.1555   -1.8749 H         1 UNK         0.0731 
     80 H80        31.5144   -3.3638   -0.9920 H         1 UNK         0.0731 
     81 H81        31.7618   -3.0470   -3.6902 H         1 UNK         0.1312 
     82 H82        30.4909    0.8709   -4.8643 H         1 UNK         0.1406 
     83 H83        29.1567   -0.7741   -1.1487 H         1 UNK         0.1631 
     84 H84        29.4986    2.2804   -2.7226 H         1 UNK         0.0717 
     85 H85        28.3844    1.3532   -1.7515 H         1 UNK         0.0717 
     86 H86        26.6633   -0.2874   -2.8083 H         1 UNK         0.0934 
     87 H87        25.5279    0.3518   -3.9597 H         1 UNK         0.0934 
     88 H88        28.0116   -1.2908   -4.6659 H         1 UNK         0.0739 
     89 H89        25.2765   -2.1539   -4.1878 H         1 UNK         0.3093 
     90 H90        25.4876   -5.1514   -5.8100 H         1 UNK         0.0818 
     91 H91        26.4946   -5.3022   -2.9229 H         1 UNK         0.0819 
     92 H92        25.6003   -6.5736   -3.7537 H         1 UNK         0.0819 
     93 H93        27.1911   -6.0970   -4.3219 H         1 UNK         0.0819 
     94 H94        24.2327   -4.2159   -3.3047 H         1 UNK         0.3041 
     95 H95        21.6184   -2.5732   -4.9493 H         1 UNK         0.0784 
     96 H96        20.7378   -4.8539   -5.4828 H         1 UNK         0.0793 
     97 H97        21.2150   -5.4246   -3.8901 H         1 UNK         0.0793 
     98 H98        19.9621   -4.1926   -4.0548 H         1 UNK         0.0793 
     99 H99        21.6882   -3.5752   -2.2966 H         1 UNK         0.3024 
    100 H100       22.5922   -0.7383   -0.8969 H         1 UNK         0.1171 
    101 H101       22.2626   -2.4792    0.8538 H         1 UNK         0.0786 
    102 H102       22.5388   -3.7578   -0.3176 H         1 UNK         0.0786 
    103 H103       21.1262   -2.7064   -0.4574 H         1 UNK         0.0786 
    104 H104       24.6637   -0.8934   -0.0774 H         1 UNK         0.2977 
    105 H105       28.8067   -0.4449   -6.4888 H         1 UNK         0.3127 
    106 H106       27.0955    0.8679   -8.4870 H         1 UNK         0.0770 
    107 H107       28.9517   -1.4747   -9.1740 H         1 UNK         0.0814 
    108 H108       28.2070   -0.4018  -10.3542 H         1 UNK         0.0814 
    109 H109       27.2032   -1.4442   -9.3596 H         1 UNK         0.0814 
    110 H110       28.5104    2.0895   -6.5849 H         1 UNK         0.2983 
    111 H111       31.2290    2.5891   -6.9619 H         1 UNK         0.0947 
    112 H112       29.0495    4.3846   -5.7661 H         1 UNK         0.0806 
    113 H113       30.7769    4.6593   -5.5868 H         1 UNK         0.0806 
    114 H114       30.0519    3.2223   -4.8996 H         1 UNK         0.0806 
    115 H115       28.5163    4.0301   -8.6865 H         1 UNK         0.3000 
    116 H116       29.8233    6.2340   -9.9027 H         1 UNK         0.0850 
    117 H117       27.9318    6.1011  -11.5377 H         1 UNK         0.0810 
    118 H118       27.3547    5.9509   -9.8873 H         1 UNK         0.0810 
    119 H119       27.4847    4.5202  -10.9123 H         1 UNK         0.0810 
    120 H120       30.0375    2.7988  -10.6096 H         1 UNK         0.3040 
    121 H121       31.7542    3.3223  -13.0095 H         1 UNK         0.0766 
    122 H122       29.6950    1.9477  -13.4697 H         1 UNK         0.0812 
    123 H123       30.1834    0.8046  -12.2190 H         1 UNK         0.0812 
    124 H124       31.1614    1.0047  -13.6671 H         1 UNK         0.0812 
    125 H125       32.1232    3.0983   -9.8208 H         1 UNK         0.3205 
    126 H126       33.4375    2.2369   -8.2742 H         1 UNK         0.0754 
    127 H127       35.8430    2.0406   -8.8056 H         1 UNK         0.0769 
    128 H128       35.1665    3.4231   -9.6484 H         1 UNK         0.0769 
    129 H129       35.4946    1.9289  -10.5254 H         1 UNK         0.0769 
    130 H130       31.6450    0.3371   -9.5281 H         1 UNK         0.2981 
    131 H131       31.1433   -1.7645   -9.8467 H         1 UNK         0.0541 
    132 H132       33.3465   -0.6247  -11.7003 H         1 UNK         0.3459 
    133 H133       33.9165   -2.0918  -12.4601 H         1 UNK         0.3459 
    134 H134       32.1393   -3.5670   -8.3656 H         1 UNK         0.0612 
    135 H135       33.2912   -2.4071   -7.7669 H         1 UNK         0.0612 
    136 H136       32.3795   -0.2524   -6.0281 H         1 UNK         0.0624 
    137 H137       32.9206   -1.8315   -5.4984 H         1 UNK         0.0624 
@<TRIPOS>BOND
     1    1    2 1    
     2    1   72 1    
     3    1   73 1    
     4    1   74 1    
     5    2    3 2    
     6    2    4 am   BACKBONE|DICT|INTERRES
     7    4    5 1    
     8    4   75 1    
     9    5    6 1    
    10    5   35 1    
    11    5   76 1    
    12    6    7 1    
    13    6   77 1    
    14    6   78 1    
    15    7    8 1    
    16    8    9 1    
    17    8   79 1    
    18    8   80 1    
    19    9   10 ar   
    20    9   14 ar   
    21   10   11 ar   
    22   10   81 1    
    23   11   12 ar   
    24   11   71 1    
    25   12   13 ar   
    26   12   82 1    
    27   13   14 ar   
    28   13   15 1    
    29   14   83 1    
    30   15   16 1    
    31   15   84 1    
    32   15   85 1    
    33   16   17 1    
    34   17   18 1    
    35   17   86 1    
    36   17   87 1    
    37   18   19 1    
    38   18   37 1    
    39   18   88 1    
    40   19   20 am   BACKBONE|DICT|INTERRES
    41   19   89 1    
    42   20   21 2    
    43   20   22 1    
    44   22   23 1    
    45   22   24 1    
    46   22   90 1    
    47   23   91 1    
    48   23   92 1    
    49   23   93 1    
    50   24   25 am   BACKBONE|DICT|INTERRES
    51   24   94 1    
    52   25   26 2    
    53   25   27 1    
    54   27   28 1    
    55   27   29 1    
    56   27   95 1    
    57   28   96 1    
    58   28   97 1    
    59   28   98 1    
    60   29   30 am   BACKBONE|DICT|INTERRES
    61   29   99 1    
    62   30   31 2    
    63   30   32 1    
    64   32   33 1    
    65   32   34 1    
    66   32  100 1    
    67   33  101 1    
    68   33  102 1    
    69   33  103 1    
    70   34   35 am   BACKBONE|DICT|INTERRES
    71   34  104 1    
    72   35   36 2    
    73   37   38 2    
    74   37   39 am   BACKBONE|DICT|INTERRES
    75   39   40 1    
    76   39  105 1    
    77   40   41 1    
    78   40   42 1    
    79   40  106 1    
    80   41  107 1    
    81   41  108 1    
    82   41  109 1    
    83   42   43 2    
    84   42   44 am   BACKBONE|DICT|INTERRES
    85   44   45 1    
    86   44  110 1    
    87   45   46 1    
    88   45   47 1    
    89   45  111 1    
    90   46  112 1    
    91   46  113 1    
    92   46  114 1    
    93   47   48 2    
    94   47   49 am   BACKBONE|DICT|INTERRES
    95   49   50 1    
    96   49  115 1    
    97   50   51 1    
    98   50   52 1    
    99   50  116 1    
   100   51  117 1    
   101   51  118 1    
   102   51  119 1    
   103   52   53 2    
   104   52   54 am   BACKBONE|DICT|INTERRES
   105   54   55 1    
   106   54  120 1    
   107   55   56 1    
   108   55   57 1    
   109   55  121 1    
   110   56  122 1    
   111   56  123 1    
   112   56  124 1    
   113   57   58 2    
   114   57   59 am   BACKBONE|DICT|INTERRES
   115   59   60 1    
   116   59  125 1    
   117   60   61 1    
   118   60   62 1    
   119   60  126 1    
   120   61  127 1    
   121   61  128 1    
   122   61  129 1    
   123   62   63 2    
   124   62   64 am   BACKBONE|DICT|INTERRES
   125   64   65 1    
   126   64  130 1    
   127   65   66 1    
   128   65   69 1    
   129   65  131 1    
   130   66   67 am   BACKBONE|DICT|INTERRES
   131   66   68 2    
   132   67  132 1    
   133   67  133 1    
   134   69   70 1    
   135   69  134 1    
   136   69  135 1    
   137   70   71 1    
   138   71  136 1    
   139   71  137 1    
@<TRIPOS>SUBSTRUCTURE
     1 UNK         1 GROUP             0       ****    0 ROOT    
