@<TRIPOS>MOLECULE
3R137
137   139    1
SMALL
USER_CHARGES


@<TRIPOS>ATOM
      1 CA         29.6908   -0.5531    1.0713 C.3       0 UNK        -0.2020 
      2 C          29.1136   -1.3645   -0.0790 C.2       0 UNK         0.4855 
      3 O          28.8698   -0.8137   -1.1524 O.2       0 UNK        -0.5197 
      4 N          28.9040   -2.6686    0.1365 N.am      1 UNK        -0.4892 
      5 CA         28.3375   -3.5970   -0.8475 C.3       1 UNK         0.0835 
      6 C6         28.6096   -5.0821   -0.4795 C.3       12 UNK        -0.0855 
      7 S7         30.3476   -5.4507   -0.0473 S.3       12 UNK        -0.2931 
      8 C8         31.0402   -6.0176   -1.6338 C.3       12 UNK         0.0378 
      9 C9         31.2077   -4.8636   -2.6099 C.ar      12 UNK        -0.0802 
     10 C10        32.2029   -3.9050   -2.3961 C.ar      12 UNK        -0.0944 
     11 C11        32.3434   -2.8159   -3.2617 C.ar      12 UNK        -0.0787 
     12 C12        31.4737   -2.6941   -4.3506 C.ar      12 UNK        -0.0862 
     13 C13        30.4859   -3.6546   -4.5835 C.ar      12 UNK        -0.0733 
     14 C14        30.3619   -4.7426   -3.7152 C.ar      12 UNK        -0.0832 
     15 C15        29.5410   -3.5159   -5.7645 C.3       12 UNK         0.0240 
     16 S16        27.9046   -2.9431   -5.2242 S.3       12 UNK        -0.2522 
     17 C17        28.1822   -1.1469   -5.0258 C.3       12 UNK        -0.0967 
     18 CA         27.4125   -0.3308   -6.0931 C.3       5 UNK         0.0660 
     19 N          25.9751   -0.6344   -6.1020 N.am      5 UNK        -0.4015 
     20 C          25.1401   -0.3441   -7.1107 C.2       4 UNK         0.4946 
     21 O          25.4959    0.2605   -8.1218 O.2       4 UNK        -0.5353 
     22 CA         23.6619   -0.7505   -6.9744 C.3       4 UNK         0.0277 
     23 CB         23.4021   -2.0595   -7.7363 C.3       4 UNK        -0.1981 
     24 N          23.2120   -0.9004   -5.5892 N.am      4 UNK        -0.4209 
     25 C          23.1369    0.0926   -4.6908 C.2       3 UNK         0.4942 
     26 O          23.3854    1.2701   -4.9509 O.2       3 UNK        -0.5208 
     27 CA         22.7840   -0.3098   -3.2451 C.3       3 UNK         0.0250 
     28 CB         21.2653   -0.2347   -3.0207 C.3       3 UNK        -0.1990 
     29 N          23.2727   -1.6439   -2.8630 N.am      3 UNK        -0.4232 
     30 C          24.5615   -2.0135   -2.8878 C.2       2 UNK         0.4993 
     31 O          25.4703   -1.2637   -3.2463 O.2       2 UNK        -0.5286 
     32 CA         24.8723   -3.4771   -2.5372 C.3       2 UNK         0.0209 
     33 CB         24.5328   -4.3935   -3.7259 C.3       2 UNK        -0.1931 
     34 N          26.2879   -3.6527   -2.2012 N.am      2 UNK        -0.4546 
     35 C          26.8189   -3.3657   -1.0067 C.2       1 UNK         0.5154 
     36 O          26.1493   -2.9934   -0.0379 O.2       1 UNK        -0.5181 
     37 C          27.7065    1.1817   -5.9808 C.2       5 UNK         0.5014 
     38 O          28.8377    1.5930   -6.2347 O.2       5 UNK        -0.5248 
     39 N          26.6928    1.9932   -5.6420 N.am      6 UNK        -0.4434 
     40 CA         26.7445    3.4529   -5.7290 C.3       6 UNK         0.0363 
     41 CB         25.6289    4.0472   -4.8543 C.3       6 UNK        -0.1936 
     42 C          26.6240    3.9707   -7.1769 C.2       6 UNK         0.5081 
     43 O          27.0574    5.0925   -7.4416 O.2       6 UNK        -0.5248 
     44 N          26.0278    3.1738   -8.0766 N.am      7 UNK        -0.4718 
     45 CA         25.8032    3.5187   -9.4829 C.3       7 UNK         0.0273 
     46 CB         24.3446    3.1977   -9.8501 C.3       7 UNK        -0.1935 
     47 C          26.7648    2.7736  -10.4220 C.2       7 UNK         0.5018 
     48 O          27.1915    3.3527  -11.4225 O.2       7 UNK        -0.5186 
     49 N          27.0730    1.5081  -10.1046 N.am      8 UNK        -0.4240 
     50 CA         27.9786    0.6423  -10.8643 C.3       8 UNK         0.0235 
     51 CB         27.8494   -0.7971  -10.3351 C.3       8 UNK        -0.2000 
     52 C          29.4459    1.1047  -10.8019 C.2       8 UNK         0.4941 
     53 O          29.8318    1.8411   -9.8921 O.2       8 UNK        -0.5273 
     54 N          30.2484    0.6251  -11.7625 N.am      9 UNK        -0.4262 
     55 CA         31.6864    0.9006  -11.8593 C.3       9 UNK         0.0264 
     56 CB         32.1892    0.4920  -13.2537 C.3       9 UNK        -0.1955 
     57 C          32.5257    0.2151  -10.7648 C.2       9 UNK         0.5031 
     58 O          33.6083    0.7093  -10.4438 O.2       9 UNK        -0.5390 
     59 N          32.0255   -0.9001  -10.2121 N.am      10 UNK        -0.4204 
     60 CA         32.6302   -1.6414   -9.1033 C.3       10 UNK         0.0237 
     61 CB         31.8326   -2.9346   -8.8633 C.3       10 UNK        -0.1985 
     62 C          32.6939   -0.7742   -7.8344 C.2       10 UNK         0.4970 
     63 O          31.6460   -0.4574   -7.2709 O.2       10 UNK        -0.4914 
     64 N          33.9173   -0.3878   -7.4503 N.am      11 UNK        -0.4285 
     65 CA         34.2316    0.5990   -6.4009 C.3       11 UNK         0.1007 
     66 C          33.8325    2.0639   -6.7633 C.2       11 UNK         0.5703 
     67 N          33.6079    2.3984   -8.0289 N.am      11 UNK        -0.7361 
     68 O          33.7646    2.9279   -5.8917 O.2       11 UNK        -0.4986 
     69 C69        33.7608    0.1795   -4.9778 C.3       12 UNK        -0.0947 
     70 S70        34.4617   -1.4136   -4.4326 S.3       12 UNK        -0.2240 
     71 C71        33.4110   -1.7632   -2.9847 C.3       12 UNK         0.0194 
     72 H72        30.6374   -0.1026    0.7739 H         1 UNK         0.0906 
     73 H73        29.0042    0.2467    1.3474 H         1 UNK         0.0906 
     74 H74        29.8701   -1.1664    1.9543 H         1 UNK         0.0906 
     75 H75        29.1151   -3.0707    1.0384 H         1 UNK         0.3140 
     76 H76        28.8118   -3.3828   -1.8076 H         1 UNK         0.1085 
     77 H77        28.0036   -5.3736    0.3811 H         1 UNK         0.0836 
     78 H78        28.2991   -5.7383   -1.2949 H         1 UNK         0.0836 
     79 H79        30.4093   -6.8032   -2.0525 H         1 UNK         0.0731 
     80 H80        32.0139   -6.4741   -1.4501 H         1 UNK         0.0731 
     81 H81        32.8544   -4.0004   -1.5380 H         1 UNK         0.1312 
     82 H82        31.5645   -1.8511   -5.0198 H         1 UNK         0.1406 
     83 H83        29.5906   -5.4806   -3.8903 H         1 UNK         0.1631 
     84 H84        29.4351   -4.4805   -6.2629 H         1 UNK         0.0717 
     85 H85        29.9410   -2.8258   -6.5079 H         1 UNK         0.0717 
     86 H86        27.8833   -0.8560   -4.0174 H         1 UNK         0.0934 
     87 H87        29.2508   -0.9340   -5.0878 H         1 UNK         0.0934 
     88 H88        27.8057   -0.6345   -7.0643 H         1 UNK         0.0739 
     89 H89        25.6217   -1.0743   -5.2584 H         1 UNK         0.3093 
     90 H90        23.0656    0.0400   -7.4352 H         1 UNK         0.0818 
     91 H91        22.3437   -2.3208   -7.7295 H         1 UNK         0.0819 
     92 H92        23.7040   -1.9685   -8.7809 H         1 UNK         0.0819 
     93 H93        23.9591   -2.8942   -7.3084 H         1 UNK         0.0819 
     94 H94        22.9840   -1.8349   -5.2836 H         1 UNK         0.3041 
     95 H95        23.2636    0.4149   -2.5837 H         1 UNK         0.0784 
     96 H96        20.8818    0.7541   -3.2773 H         1 UNK         0.0793 
     97 H97        20.7286   -0.9609   -3.6325 H         1 UNK         0.0793 
     98 H98        21.0081   -0.4177   -1.9771 H         1 UNK         0.0793 
     99 H99        22.5756   -2.3141   -2.5701 H         1 UNK         0.3024 
    100 H100       24.2618   -3.7670   -1.6785 H         1 UNK         0.1171 
    101 H101       23.4718   -4.3440   -3.9736 H         1 UNK         0.0786 
    102 H102       25.0899   -4.1183   -4.6225 H         1 UNK         0.0786 
    103 H103       24.7594   -5.4356   -3.4993 H         1 UNK         0.0786 
    104 H104       26.9018   -3.8823   -2.9705 H         1 UNK         0.2977 
    105 H105       25.7938    1.5837   -5.4225 H         1 UNK         0.3127 
    106 H106       27.7044    3.7932   -5.3342 H         1 UNK         0.0770 
    107 H107       24.6394    3.7533   -5.2071 H         1 UNK         0.0814 
    108 H108       25.6667    5.1374   -4.8621 H         1 UNK         0.0814 
    109 H109       25.7238    3.7274   -3.8165 H         1 UNK         0.0814 
    110 H110       25.7406    2.2430   -7.7954 H         1 UNK         0.2983 
    111 H111       25.9592    4.5886   -9.6389 H         1 UNK         0.0947 
    112 H112       24.1395    3.4507  -10.8913 H         1 UNK         0.0806 
    113 H113       23.6478    3.7677   -9.2353 H         1 UNK         0.0806 
    114 H114       24.1166    2.1389   -9.7201 H         1 UNK         0.0806 
    115 H115       26.6251    1.0908   -9.2921 H         1 UNK         0.3000 
    116 H116       27.6554    0.6632  -11.9074 H         1 UNK         0.0850 
    117 H117       28.4081   -1.4987  -10.9553 H         1 UNK         0.0810 
    118 H118       26.8107   -1.1292  -10.3313 H         1 UNK         0.0810 
    119 H119       28.2325   -0.8862   -9.3186 H         1 UNK         0.0810 
    120 H120       29.8527    0.0313  -12.4780 H         1 UNK         0.3040 
    121 H121       31.8306    1.9777  -11.7488 H         1 UNK         0.0766 
    122 H122       33.2520    0.7126  -13.3645 H         1 UNK         0.0812 
    123 H123       31.6650    1.0351  -14.0403 H         1 UNK         0.0812 
    124 H124       32.0581   -0.5755  -13.4354 H         1 UNK         0.0812 
    125 H125       31.1193   -1.2136  -10.5239 H         1 UNK         0.3205 
    126 H126       33.6450   -1.9199   -9.3953 H         1 UNK         0.0754 
    127 H127       32.2080   -3.4712   -7.9905 H         1 UNK         0.0769 
    128 H128       31.9086   -3.6096   -9.7160 H         1 UNK         0.0769 
    129 H129       30.7751   -2.7301   -8.6943 H         1 UNK         0.0769 
    130 H130       34.7080   -0.6865   -8.0024 H         1 UNK         0.2981 
    131 H131       35.3211    0.6303   -6.3688 H         1 UNK         0.0541 
    132 H132       33.3614    3.3504   -8.2454 H         1 UNK         0.3459 
    133 H133       33.6722    1.7129   -8.7749 H         1 UNK         0.3459 
    134 H134       32.6725    0.1440   -4.9265 H         1 UNK         0.0612 
    135 H135       34.0697    0.9235   -4.2415 H         1 UNK         0.0612 
    136 H136       32.9302   -0.8489   -2.6343 H         1 UNK         0.0624 
    137 H137       34.0641   -2.0908   -2.1744 H         1 UNK         0.0624 
@<TRIPOS>BOND
     1    1    2 1    
     2    1   72 1    
     3    1   73 1    
     4    1   74 1    
     5    2    3 2    
     6    2    4 am   BACKBONE|DICT|INTERRES
     7    4    5 1    
     8    4   75 1    
     9    5    6 1    
    10    5   35 1    
    11    5   76 1    
    12    6    7 1    
    13    6   77 1    
    14    6   78 1    
    15    7    8 1    
    16    8    9 1    
    17    8   79 1    
    18    8   80 1    
    19    9   10 ar   
    20    9   14 ar   
    21   10   11 ar   
    22   10   81 1    
    23   11   12 ar   
    24   11   71 1    
    25   12   13 ar   
    26   12   82 1    
    27   13   14 ar   
    28   13   15 1    
    29   14   83 1    
    30   15   16 1    
    31   15   84 1    
    32   15   85 1    
    33   16   17 1    
    34   17   18 1    
    35   17   86 1    
    36   17   87 1    
    37   18   19 1    
    38   18   37 1    
    39   18   88 1    
    40   19   20 am   BACKBONE|DICT|INTERRES
    41   19   89 1    
    42   20   21 2    
    43   20   22 1    
    44   22   23 1    
    45   22   24 1    
    46   22   90 1    
    47   23   91 1    
    48   23   92 1    
    49   23   93 1    
    50   24   25 am   BACKBONE|DICT|INTERRES
    51   24   94 1    
    52   25   26 2    
    53   25   27 1    
    54   27   28 1    
    55   27   29 1    
    56   27   95 1    
    57   28   96 1    
    58   28   97 1    
    59   28   98 1    
    60   29   30 am   BACKBONE|DICT|INTERRES
    61   29   99 1    
    62   30   31 2    
    63   30   32 1    
    64   32   33 1    
    65   32   34 1    
    66   32  100 1    
    67   33  101 1    
    68   33  102 1    
    69   33  103 1    
    70   34   35 am   BACKBONE|DICT|INTERRES
    71   34  104 1    
    72   35   36 2    
    73   37   38 2    
    74   37   39 am   BACKBONE|DICT|INTERRES
    75   39   40 1    
    76   39  105 1    
    77   40   41 1    
    78   40   42 1    
    79   40  106 1    
    80   41  107 1    
    81   41  108 1    
    82   41  109 1    
    83   42   43 2    
    84   42   44 am   BACKBONE|DICT|INTERRES
    85   44   45 1    
    86   44  110 1    
    87   45   46 1    
    88   45   47 1    
    89   45  111 1    
    90   46  112 1    
    91   46  113 1    
    92   46  114 1    
    93   47   48 2    
    94   47   49 am   BACKBONE|DICT|INTERRES
    95   49   50 1    
    96   49  115 1    
    97   50   51 1    
    98   50   52 1    
    99   50  116 1    
   100   51  117 1    
   101   51  118 1    
   102   51  119 1    
   103   52   53 2    
   104   52   54 am   BACKBONE|DICT|INTERRES
   105   54   55 1    
   106   54  120 1    
   107   55   56 1    
   108   55   57 1    
   109   55  121 1    
   110   56  122 1    
   111   56  123 1    
   112   56  124 1    
   113   57   58 2    
   114   57   59 am   BACKBONE|DICT|INTERRES
   115   59   60 1    
   116   59  125 1    
   117   60   61 1    
   118   60   62 1    
   119   60  126 1    
   120   61  127 1    
   121   61  128 1    
   122   61  129 1    
   123   62   63 2    
   124   62   64 am   BACKBONE|DICT|INTERRES
   125   64   65 1    
   126   64  130 1    
   127   65   66 1    
   128   65   69 1    
   129   65  131 1    
   130   66   67 am   BACKBONE|DICT|INTERRES
   131   66   68 2    
   132   67  132 1    
   133   67  133 1    
   134   69   70 1    
   135   69  134 1    
   136   69  135 1    
   137   70   71 1    
   138   71  136 1    
   139   71  137 1    
@<TRIPOS>SUBSTRUCTURE
     1 UNK         1 GROUP             0       ****    0 ROOT    
