@<TRIPOS>MOLECULE
3R137
137   139    1
SMALL
USER_CHARGES


@<TRIPOS>ATOM
      1 CA         29.1880   -0.2313   -2.8364 C.3       0 UNK        -0.2020 
      2 C          28.1190   -1.2802   -3.0902 C.2       0 UNK         0.4855 
      3 O          27.1855   -1.0265   -3.8523 O.2       0 UNK        -0.5197 
      4 N          28.2484   -2.4568   -2.4639 N.am      1 UNK        -0.4892 
      5 CA         27.2678   -3.5518   -2.4652 C.3       1 UNK         0.0835 
      6 C6         27.7762   -4.8333   -1.7411 C.3       12 UNK        -0.0855 
      7 S7         28.8963   -4.5282   -0.3203 S.3       12 UNK        -0.2931 
      8 C8         30.5101   -5.1097   -0.9543 C.3       12 UNK         0.0378 
      9 C9         30.9843   -4.2981   -2.1536 C.ar      12 UNK        -0.0802 
     10 C10        31.6558   -3.0833   -1.9716 C.ar      12 UNK        -0.0944 
     11 C11        32.0307   -2.3073   -3.0751 C.ar      12 UNK        -0.0787 
     12 C12        31.7208   -2.7554   -4.3608 C.ar      12 UNK        -0.0862 
     13 C13        31.0818   -3.9810   -4.5576 C.ar      12 UNK        -0.0733 
     14 C14        30.7318   -4.7557   -3.4509 C.ar      12 UNK        -0.0832 
     15 C15        30.7503   -4.4598   -5.9631 C.3       12 UNK         0.0240 
     16 S16        29.0427   -4.0337   -6.4282 S.3       12 UNK        -0.2522 
     17 C17        29.1696   -2.2190   -6.5242 C.3       12 UNK        -0.0967 
     18 CA         27.9392   -1.5503   -7.1752 C.3       5 UNK         0.0660 
     19 N          26.6791   -1.8996   -6.5138 N.am      5 UNK        -0.4015 
     20 C          25.5150   -2.0491   -7.1555 C.2       4 UNK         0.4946 
     21 O          25.3827   -1.9378   -8.3753 O.2       4 UNK        -0.5353 
     22 CA         24.2814   -2.3816   -6.3000 C.3       4 UNK         0.0277 
     23 CB         24.2160   -3.8932   -6.0260 C.3       4 UNK        -0.1981 
     24 N          24.1884   -1.6573   -5.0281 N.am      4 UNK        -0.4209 
     25 C          24.1124   -0.3208   -4.9037 C.2       3 UNK         0.4942 
     26 O          24.2585    0.4558   -5.8477 O.2       3 UNK        -0.5208 
     27 CA         23.7996    0.2664   -3.5155 C.3       3 UNK         0.0250 
     28 CB         22.3248    0.7019   -3.4340 C.3       3 UNK        -0.1990 
     29 N          24.1151   -0.6606   -2.4310 N.am      3 UNK        -0.4232 
     30 C          24.3701   -0.3465   -1.1584 C.2       2 UNK         0.4993 
     31 O          24.2832    0.7918   -0.6969 O.2       2 UNK        -0.5286 
     32 CA         24.8391   -1.5006   -0.2502 C.3       2 UNK         0.0209 
     33 CB         23.6564   -2.3799    0.2025 C.3       2 UNK        -0.1931 
     34 N          25.9257   -2.3010   -0.8403 N.am      2 UNK        -0.4546 
     35 C          25.9002   -3.0873   -1.9286 C.2       1 UNK         0.5154 
     36 O          24.8775   -3.3501   -2.5666 O.2       1 UNK        -0.5181 
     37 C          28.1167   -0.0232   -7.2102 C.2       5 UNK         0.5014 
     38 O          28.6695    0.4929   -8.1824 O.2       5 UNK        -0.5248 
     39 N          27.6252    0.6799   -6.1763 N.am      6 UNK        -0.4434 
     40 CA         27.6415    2.1421   -6.0684 C.3       6 UNK         0.0363 
     41 CB         27.0823    2.5750   -4.7058 C.3       6 UNK        -0.1936 
     42 C          26.8738    2.8367   -7.2038 C.2       6 UNK         0.5081 
     43 O          27.3377    3.8613   -7.7015 O.2       6 UNK        -0.5248 
     44 N          25.7590    2.2351   -7.6434 N.am      7 UNK        -0.4718 
     45 CA         24.9727    2.6611   -8.8068 C.3       7 UNK         0.0273 
     46 CB         23.7105    1.7894   -8.9034 C.3       7 UNK        -0.1935 
     47 C          25.7498    2.6285  -10.1385 C.2       7 UNK         0.5018 
     48 O          25.4219    3.3979  -11.0423 O.2       7 UNK        -0.5186 
     49 N          26.7671    1.7613  -10.2296 N.am      8 UNK        -0.4240 
     50 CA         27.6946    1.6614  -11.3587 C.3       8 UNK         0.0235 
     51 CB         27.9598    0.1708  -11.6376 C.3       8 UNK        -0.2000 
     52 C          29.0209    2.4024  -11.0962 C.2       8 UNK         0.4941 
     53 O          29.8746    2.4165  -11.9839 O.2       8 UNK        -0.5273 
     54 N          29.1875    2.9719   -9.8904 N.am      9 UNK        -0.4262 
     55 CA         30.4064    3.5762   -9.3377 C.3       9 UNK         0.0264 
     56 CB         30.7467    4.8899  -10.0731 C.3       9 UNK        -0.1955 
     57 C          31.5960    2.5937   -9.2730 C.2       9 UNK         0.5031 
     58 O          32.7418    3.0076   -9.4650 O.2       9 UNK        -0.5390 
     59 N          31.3072    1.3108   -9.0192 N.am      10 UNK        -0.4204 
     60 CA         32.2844    0.2246   -9.0003 C.3       10 UNK         0.0237 
     61 CB         31.6716   -0.9952   -9.7094 C.3       10 UNK        -0.1985 
     62 C          32.6787   -0.1338   -7.5615 C.2       10 UNK         0.4970 
     63 O          31.8317   -0.0889   -6.6679 O.2       10 UNK        -0.4914 
     64 N          33.9433   -0.5324   -7.3906 N.am      11 UNK        -0.4285 
     65 CA         34.5608   -1.0983   -6.1835 C.3       11 UNK         0.1007 
     66 C          35.9855   -1.6247   -6.5180 C.2       11 UNK         0.5703 
     67 N          36.6769   -2.2198   -5.5570 N.am      11 UNK        -0.7361 
     68 O          36.4687   -1.5084   -7.6445 O.2       11 UNK        -0.4986 
     69 C69        34.5272   -0.1435   -4.9496 C.3       12 UNK        -0.0947 
     70 S70        34.4875   -1.0310   -3.3489 S.3       12 UNK        -0.2240 
     71 C71        32.7262   -0.9653   -2.8826 C.3       12 UNK         0.0194 
     72 H72        29.9324   -0.5783   -2.1218 H         1 UNK         0.0906 
     73 H73        29.6929    0.0281   -3.7666 H         1 UNK         0.0906 
     74 H74        28.7351    0.6698   -2.4262 H         1 UNK         0.0906 
     75 H75        29.0644   -2.6343   -1.8928 H         1 UNK         0.3140 
     76 H76        27.1029   -3.8148   -3.5128 H         1 UNK         0.1085 
     77 H77        26.9430   -5.4455   -1.3890 H         1 UNK         0.0836 
     78 H78        28.2826   -5.4738   -2.4608 H         1 UNK         0.0836 
     79 H79        30.4376   -6.1676   -1.2118 H         1 UNK         0.0731 
     80 H80        31.2481   -5.0438   -0.1534 H         1 UNK         0.0731 
     81 H81        31.8655   -2.7331   -0.9699 H         1 UNK         0.1312 
     82 H82        31.9628   -2.1403   -5.2122 H         1 UNK         0.1406 
     83 H83        30.2319   -5.7020   -3.6052 H         1 UNK         0.1631 
     84 H84        30.8729   -5.5423   -6.0224 H         1 UNK         0.0717 
     85 H85        31.4456   -4.0346   -6.6888 H         1 UNK         0.0717 
     86 H86        29.3411   -1.8290   -5.5228 H         1 UNK         0.0934 
     87 H87        30.0660   -1.9787   -7.0958 H         1 UNK         0.0934 
     88 H88        27.9030   -1.8896   -8.2130 H         1 UNK         0.0739 
     89 H89        26.6968   -1.9336   -5.4993 H         1 UNK         0.3093 
     90 H90        23.4025   -2.1068   -6.8871 H         1 UNK         0.0818 
     91 H91        24.2582   -4.4619   -6.9562 H         1 UNK         0.0819 
     92 H92        25.0463   -4.2268   -5.4020 H         1 UNK         0.0819 
     93 H93        23.2883   -4.1669   -5.5230 H         1 UNK         0.0819 
     94 H94        24.0969   -2.2426   -4.2093 H         1 UNK         0.3041 
     95 H95        24.4291    1.1492   -3.3956 H         1 UNK         0.0784 
     96 H96        22.0732    1.3854   -4.2463 H         1 UNK         0.0793 
     97 H97        21.6503   -0.1523   -3.5032 H         1 UNK         0.0793 
     98 H98        22.1127    1.2218   -2.4997 H         1 UNK         0.0793 
     99 H99        24.2709   -1.6334   -2.6761 H         1 UNK         0.3024 
    100 H100       25.2617   -1.0384    0.6439 H         1 UNK         0.1171 
    101 H101       23.9851   -3.1635    0.8852 H         1 UNK         0.0786 
    102 H102       22.9109   -1.7830    0.7295 H         1 UNK         0.0786 
    103 H103       23.1501   -2.8578   -0.6365 H         1 UNK         0.0786 
    104 H104       26.8381   -2.1396   -0.4353 H         1 UNK         0.2977 
    105 H105       27.2167    0.1698   -5.3987 H         1 UNK         0.3127 
    106 H106       28.6843    2.4607   -6.1289 H         1 UNK         0.0770 
    107 H107       27.6355    2.1260   -3.8832 H         1 UNK         0.0814 
    108 H108       26.0338    2.3007   -4.5980 H         1 UNK         0.0814 
    109 H109       27.1476    3.6573   -4.5859 H         1 UNK         0.0814 
    110 H110       25.4043    1.4354   -7.1243 H         1 UNK         0.2983 
    111 H111       24.6661    3.6954   -8.6371 H         1 UNK         0.0947 
    112 H112       23.0950    2.0811   -9.7556 H         1 UNK         0.0806 
    113 H113       23.0930    1.8868   -8.0102 H         1 UNK         0.0806 
    114 H114       23.9593    0.7338   -9.0231 H         1 UNK         0.0806 
    115 H115       26.9858    1.1858   -9.4253 H         1 UNK         0.3000 
    116 H116       27.2474    2.1021  -12.2522 H         1 UNK         0.0850 
    117 H117       28.6064    0.0432  -12.5068 H         1 UNK         0.0810 
    118 H118       27.0332   -0.3653  -11.8434 H         1 UNK         0.0810 
    119 H119       28.4494   -0.3177  -10.7942 H         1 UNK         0.0810 
    120 H120       28.4078    2.9380   -9.2440 H         1 UNK         0.3040 
    121 H121       30.1725    3.8300   -8.3028 H         1 UNK         0.0766 
    122 H122       31.0477    4.7092  -11.1055 H         1 UNK         0.0812 
    123 H123       31.5683    5.4124   -9.5817 H         1 UNK         0.0812 
    124 H124       29.8942    5.5688  -10.0853 H         1 UNK         0.0812 
    125 H125       30.3489    1.0578   -8.7824 H         1 UNK         0.3205 
    126 H126       33.1818    0.5194   -9.5487 H         1 UNK         0.0754 
    127 H127       32.3530   -1.8468   -9.6924 H         1 UNK         0.0769 
    128 H128       31.4566   -0.7727  -10.7549 H         1 UNK         0.0769 
    129 H129       30.7385   -1.3106   -9.2422 H         1 UNK         0.0769 
    130 H130       34.5692   -0.5468   -8.1867 H         1 UNK         0.2981 
    131 H131       33.9845   -1.9943   -5.9609 H         1 UNK         0.0541 
    132 H132       37.6006   -2.5707   -5.7554 H         1 UNK         0.3459 
    133 H133       36.2922   -2.2982   -4.6272 H         1 UNK         0.3459 
    134 H134       33.6711    0.5283   -4.9867 H         1 UNK         0.0612 
    135 H135       35.3950    0.5183   -4.9549 H         1 UNK         0.0612 
    136 H136       32.6622   -0.6552   -1.8386 H         1 UNK         0.0624 
    137 H137       32.2045   -0.1979   -3.4549 H         1 UNK         0.0624 
@<TRIPOS>BOND
     1    1    2 1    
     2    1   72 1    
     3    1   73 1    
     4    1   74 1    
     5    2    3 2    
     6    2    4 am   BACKBONE|DICT|INTERRES
     7    4    5 1    
     8    4   75 1    
     9    5    6 1    
    10    5   35 1    
    11    5   76 1    
    12    6    7 1    
    13    6   77 1    
    14    6   78 1    
    15    7    8 1    
    16    8    9 1    
    17    8   79 1    
    18    8   80 1    
    19    9   10 ar   
    20    9   14 ar   
    21   10   11 ar   
    22   10   81 1    
    23   11   12 ar   
    24   11   71 1    
    25   12   13 ar   
    26   12   82 1    
    27   13   14 ar   
    28   13   15 1    
    29   14   83 1    
    30   15   16 1    
    31   15   84 1    
    32   15   85 1    
    33   16   17 1    
    34   17   18 1    
    35   17   86 1    
    36   17   87 1    
    37   18   19 1    
    38   18   37 1    
    39   18   88 1    
    40   19   20 am   BACKBONE|DICT|INTERRES
    41   19   89 1    
    42   20   21 2    
    43   20   22 1    
    44   22   23 1    
    45   22   24 1    
    46   22   90 1    
    47   23   91 1    
    48   23   92 1    
    49   23   93 1    
    50   24   25 am   BACKBONE|DICT|INTERRES
    51   24   94 1    
    52   25   26 2    
    53   25   27 1    
    54   27   28 1    
    55   27   29 1    
    56   27   95 1    
    57   28   96 1    
    58   28   97 1    
    59   28   98 1    
    60   29   30 am   BACKBONE|DICT|INTERRES
    61   29   99 1    
    62   30   31 2    
    63   30   32 1    
    64   32   33 1    
    65   32   34 1    
    66   32  100 1    
    67   33  101 1    
    68   33  102 1    
    69   33  103 1    
    70   34   35 am   BACKBONE|DICT|INTERRES
    71   34  104 1    
    72   35   36 2    
    73   37   38 2    
    74   37   39 am   BACKBONE|DICT|INTERRES
    75   39   40 1    
    76   39  105 1    
    77   40   41 1    
    78   40   42 1    
    79   40  106 1    
    80   41  107 1    
    81   41  108 1    
    82   41  109 1    
    83   42   43 2    
    84   42   44 am   BACKBONE|DICT|INTERRES
    85   44   45 1    
    86   44  110 1    
    87   45   46 1    
    88   45   47 1    
    89   45  111 1    
    90   46  112 1    
    91   46  113 1    
    92   46  114 1    
    93   47   48 2    
    94   47   49 am   BACKBONE|DICT|INTERRES
    95   49   50 1    
    96   49  115 1    
    97   50   51 1    
    98   50   52 1    
    99   50  116 1    
   100   51  117 1    
   101   51  118 1    
   102   51  119 1    
   103   52   53 2    
   104   52   54 am   BACKBONE|DICT|INTERRES
   105   54   55 1    
   106   54  120 1    
   107   55   56 1    
   108   55   57 1    
   109   55  121 1    
   110   56  122 1    
   111   56  123 1    
   112   56  124 1    
   113   57   58 2    
   114   57   59 am   BACKBONE|DICT|INTERRES
   115   59   60 1    
   116   59  125 1    
   117   60   61 1    
   118   60   62 1    
   119   60  126 1    
   120   61  127 1    
   121   61  128 1    
   122   61  129 1    
   123   62   63 2    
   124   62   64 am   BACKBONE|DICT|INTERRES
   125   64   65 1    
   126   64  130 1    
   127   65   66 1    
   128   65   69 1    
   129   65  131 1    
   130   66   67 am   BACKBONE|DICT|INTERRES
   131   66   68 2    
   132   67  132 1    
   133   67  133 1    
   134   69   70 1    
   135   69  134 1    
   136   69  135 1    
   137   70   71 1    
   138   71  136 1    
   139   71  137 1    
@<TRIPOS>SUBSTRUCTURE
     1 UNK         1 GROUP             0       ****    0 ROOT    
