@<TRIPOS>MOLECULE
3R137
137   139    1
SMALL
USER_CHARGES


@<TRIPOS>ATOM
      1 CA         27.2874   -4.1766    1.8518 C.3       0 UNK        -0.2020 
      2 C          27.2046   -2.6655    1.6972 C.2       0 UNK         0.4855 
      3 O          26.5641   -2.0008    2.5119 O.2       0 UNK        -0.5197 
      4 N          27.8516   -2.1194    0.6596 N.am      1 UNK        -0.4892 
      5 CA         27.8635   -0.6854    0.3381 C.3       1 UNK         0.0835 
      6 C6         28.9666   -0.3330   -0.6873 C.3       12 UNK        -0.0855 
      7 S7         30.6522   -0.6832   -0.0844 S.3       12 UNK        -0.2931 
      8 C8         31.0360   -2.2842   -0.8789 C.3       12 UNK         0.0378 
      9 C9         30.9118   -2.2746   -2.4010 C.ar      12 UNK        -0.0802 
     10 C10        31.4854   -1.2501   -3.1608 C.ar      12 UNK        -0.0944 
     11 C11        31.4005   -1.2656   -4.5550 C.ar      12 UNK        -0.0787 
     12 C12        30.7508   -2.3256   -5.1941 C.ar      12 UNK        -0.0862 
     13 C13        30.1598   -3.3510   -4.4503 C.ar      12 UNK        -0.0733 
     14 C14        30.2416   -3.3159   -3.0537 C.ar      12 UNK        -0.0832 
     15 C15        29.4716   -4.5198   -5.1477 C.3       12 UNK         0.0240 
     16 S16        27.8382   -4.0786   -5.8318 S.3       12 UNK        -0.2522 
     17 C17        28.2576   -3.6047   -7.5497 C.3       12 UNK        -0.0967 
     18 CA         27.6379   -2.2682   -8.0291 C.3       5 UNK         0.0660 
     19 N          26.1723   -2.2917   -8.0244 N.am      5 UNK        -0.4015 
     20 C          25.4058   -1.3657   -8.6175 C.2       4 UNK         0.4946 
     21 O          25.8533   -0.3974   -9.2302 O.2       4 UNK        -0.5353 
     22 CA         23.8833   -1.5199   -8.4903 C.3       4 UNK         0.0277 
     23 CB         23.3425   -2.4231   -9.6103 C.3       4 UNK        -0.1981 
     24 N          23.4194   -2.0177   -7.1921 N.am      4 UNK        -0.4209 
     25 C          23.6722   -1.4595   -5.9997 C.2       3 UNK         0.4942 
     26 O          24.4303   -0.4983   -5.8385 O.2       3 UNK        -0.5208 
     27 CA         22.8933   -2.0575   -4.8123 C.3       3 UNK         0.0250 
     28 CB         22.9709   -3.6015   -4.7597 C.3       3 UNK        -0.1990 
     29 N          23.2537   -1.4511   -3.5243 N.am      3 UNK        -0.4232 
     30 C          24.3795   -1.6283   -2.8197 C.2       2 UNK         0.4993 
     31 O          25.2952   -2.3919   -3.1395 O.2       2 UNK        -0.5286 
     32 CA         24.4854   -0.8203   -1.5180 C.3       2 UNK         0.0209 
     33 CB         23.3835   -1.2059   -0.5111 C.3       2 UNK        -0.1931 
     34 N          25.7909   -1.0652   -0.9154 N.am      2 UNK        -0.4546 
     35 C          26.4930   -0.1988   -0.1774 C.2       1 UNK         0.5154 
     36 O          26.1038    0.9365    0.1012 O.2       1 UNK        -0.5181 
     37 C          28.2118   -1.0480   -7.2829 C.2       5 UNK         0.5014 
     38 O          29.1864   -0.4581   -7.7537 O.2       5 UNK        -0.5248 
     39 N          27.5853   -0.6783   -6.1579 N.am      6 UNK        -0.4434 
     40 CA         27.9429    0.4924   -5.3627 C.3       6 UNK         0.0363 
     41 CB         27.3239    0.3693   -3.9640 C.3       6 UNK        -0.1936 
     42 C          27.4923    1.7889   -6.0466 C.2       6 UNK         0.5081 
     43 O          28.2555    2.7534   -6.0674 O.2       6 UNK        -0.5248 
     44 N          26.2791    1.7781   -6.6196 N.am      7 UNK        -0.4718 
     45 CA         25.6943    2.9015   -7.3577 C.3       7 UNK         0.0273 
     46 CB         24.2282    2.5886   -7.6950 C.3       7 UNK        -0.1935 
     47 C          26.4826    3.2643   -8.6282 C.2       7 UNK         0.5018 
     48 O          26.7032    4.4483   -8.8851 O.2       7 UNK        -0.5186 
     49 N          26.9142    2.2440   -9.3827 N.am      8 UNK        -0.4240 
     50 CA         27.7591    2.3900  -10.5711 C.3       8 UNK         0.0235 
     51 CB         27.6249    1.1257  -11.4366 C.3       8 UNK        -0.2000 
     52 C          29.2418    2.6446  -10.2439 C.2       8 UNK         0.4941 
     53 O          29.9830    3.0413  -11.1440 O.2       8 UNK        -0.5273 
     54 N          29.6522    2.3820   -8.9923 N.am      9 UNK        -0.4262 
     55 CA         31.0314    2.3766   -8.4874 C.3       9 UNK         0.0264 
     56 CB         31.6313    3.7979   -8.4829 C.3       9 UNK        -0.1955 
     57 C          31.9088    1.3474   -9.2279 C.2       9 UNK         0.5031 
     58 O          33.0512    1.6399   -9.5887 O.2       9 UNK        -0.5390 
     59 N          31.3496    0.1463   -9.4360 N.am      10 UNK        -0.4204 
     60 CA         31.9425   -0.9563  -10.2020 C.3       10 UNK         0.0237 
     61 CB         30.8876   -2.0587  -10.3866 C.3       10 UNK        -0.1985 
     62 C          33.2260   -1.5353   -9.5806 C.2       10 UNK         0.4970 
     63 O          34.0126   -2.1622  -10.2907 O.2       10 UNK        -0.4914 
     64 N          33.4147   -1.3033   -8.2775 N.am      11 UNK        -0.4285 
     65 CA         34.6340   -1.6037   -7.5219 C.3       11 UNK         0.1007 
     66 C          35.8565   -0.7003   -7.8689 C.2       11 UNK         0.5703 
     67 N          35.6940    0.4000   -8.5976 N.am      11 UNK        -0.7361 
     68 O          36.9784   -1.0154   -7.4791 O.2       11 UNK        -0.4986 
     69 C69        34.3379   -1.6512   -5.9996 C.3       12 UNK        -0.0947 
     70 S70        33.8107   -0.0526   -5.2804 S.3       12 UNK        -0.2240 
     71 C71        31.9917   -0.1257   -5.3701 C.3       12 UNK         0.0194 
     72 H72        27.8918   -4.6359    1.0698 H         1 UNK         0.0906 
     73 H73        27.7294   -4.4313    2.8147 H         1 UNK         0.0906 
     74 H74        26.2897   -4.6128    1.8091 H         1 UNK         0.0906 
     75 H75        28.3715   -2.7128    0.0311 H         1 UNK         0.3140 
     76 H76        28.0685   -0.1369    1.2606 H         1 UNK         0.1085 
     77 H77        28.7962   -0.8580   -1.6265 H         1 UNK         0.0836 
     78 H78        28.9317    0.7312   -0.9302 H         1 UNK         0.0836 
     79 H79        30.3966   -3.0526   -0.4434 H         1 UNK         0.0731 
     80 H80        32.0588   -2.5607   -0.6197 H         1 UNK         0.0731 
     81 H81        32.0021   -0.4381   -2.6676 H         1 UNK         0.1312 
     82 H82        30.7013   -2.3474   -6.2726 H         1 UNK         0.1406 
     83 H83        29.7983   -4.1150   -2.4750 H         1 UNK         0.1631 
     84 H84        29.3280   -5.3402   -4.4430 H         1 UNK         0.0717 
     85 H85        30.1173   -4.9182   -5.9314 H         1 UNK         0.0717 
     86 H86        29.3401   -3.5780   -7.6757 H         1 UNK         0.0934 
     87 H87        27.9203   -4.4112   -8.2029 H         1 UNK         0.0934 
     88 H88        27.9346   -2.1441   -9.0732 H         1 UNK         0.0739 
     89 H89        25.7314   -3.0463   -7.5191 H         1 UNK         0.3093 
     90 H90        23.4487   -0.5276   -8.6223 H         1 UNK         0.0818 
     91 H91        22.2525   -2.4434   -9.6142 H         1 UNK         0.0819 
     92 H92        23.6593   -2.0617  -10.5900 H         1 UNK         0.0819 
     93 H93        23.6982   -3.4494   -9.5114 H         1 UNK         0.0819 
     94 H94        22.7811   -2.7996   -7.2212 H         1 UNK         0.3041 
     95 H95        21.8483   -1.7882   -4.9732 H         1 UNK         0.0784 
     96 H96        22.4527   -4.0577   -5.6034 H         1 UNK         0.0793 
     97 H97        24.0010   -3.9595   -4.7809 H         1 UNK         0.0793 
     98 H98        22.5027   -3.9904   -3.8554 H         1 UNK         0.0793 
     99 H99        22.5871   -0.7759   -3.1772 H         1 UNK         0.3024 
    100 H100       24.3970    0.2378   -1.7761 H         1 UNK         0.1171 
    101 H101       23.4844   -0.6462    0.4192 H         1 UNK         0.0786 
    102 H102       22.3886   -0.9940   -0.9037 H         1 UNK         0.0786 
    103 H103       23.4201   -2.2679   -0.2649 H         1 UNK         0.0786 
    104 H104       26.2054   -1.9528   -1.1699 H         1 UNK         0.2977 
    105 H105       26.7728   -1.2007   -5.8575 H         1 UNK         0.3127 
    106 H106       29.0291    0.5168   -5.2561 H         1 UNK         0.0770 
    107 H107       26.2383    0.4654   -3.9915 H         1 UNK         0.0814 
    108 H108       27.7041    1.1455   -3.2992 H         1 UNK         0.0814 
    109 H109       27.5580   -0.5965   -3.5177 H         1 UNK         0.0814 
    110 H110       25.7065    0.9448   -6.5194 H         1 UNK         0.2983 
    111 H111       25.7138    3.7723   -6.6987 H         1 UNK         0.0947 
    112 H112       23.7508    3.4396   -8.1825 H         1 UNK         0.0806 
    113 H113       23.6524    2.3625   -6.7972 H         1 UNK         0.0806 
    114 H114       24.1436    1.7375   -8.3704 H         1 UNK         0.0806 
    115 H115       26.6245    1.2964   -9.1445 H         1 UNK         0.3000 
    116 H116       27.3997    3.2423  -11.1518 H         1 UNK         0.0850 
    117 H117       28.2013    1.2171  -12.3583 H         1 UNK         0.0810 
    118 H118       26.5875    0.9462  -11.7193 H         1 UNK         0.0810 
    119 H119       27.9862    0.2399  -10.9120 H         1 UNK         0.0810 
    120 H120       28.9536    2.0632   -8.3337 H         1 UNK         0.3040 
    121 H121       30.9720    2.0423   -7.4508 H         1 UNK         0.0766 
    122 H122       31.7715    4.1837   -9.4930 H         1 UNK         0.0812 
    123 H123       32.6065    3.8067   -7.9946 H         1 UNK         0.0812 
    124 H124       30.9913    4.4951   -7.9421 H         1 UNK         0.0812 
    125 H125       30.4386   -0.0292   -9.0125 H         1 UNK         0.3205 
    126 H126       32.2082   -0.5655  -11.1864 H         1 UNK         0.0754 
    127 H127       31.2749   -2.8723  -11.0015 H         1 UNK         0.0769 
    128 H128       29.9945   -1.6762  -10.8815 H         1 UNK         0.0769 
    129 H129       30.5861   -2.4870   -9.4310 H         1 UNK         0.0769 
    130 H130       32.7225   -0.7596   -7.7888 H         1 UNK         0.2981 
    131 H131       34.9352   -2.6124   -7.8105 H         1 UNK         0.0541 
    132 H132       36.4984    0.9660   -8.8147 H         1 UNK         0.3459 
    133 H133       34.7771    0.6871   -8.9204 H         1 UNK         0.3459 
    134 H134       35.2270   -1.9796   -5.4587 H         1 UNK         0.0612 
    135 H135       33.5840   -2.4111   -5.7933 H         1 UNK         0.0612 
    136 H136       31.5908    0.8174   -4.9964 H         1 UNK         0.0624 
    137 H137       31.6765   -0.1919   -6.4106 H         1 UNK         0.0624 
@<TRIPOS>BOND
     1    1    2 1    
     2    1   72 1    
     3    1   73 1    
     4    1   74 1    
     5    2    3 2    
     6    2    4 am   BACKBONE|DICT|INTERRES
     7    4    5 1    
     8    4   75 1    
     9    5    6 1    
    10    5   35 1    
    11    5   76 1    
    12    6    7 1    
    13    6   77 1    
    14    6   78 1    
    15    7    8 1    
    16    8    9 1    
    17    8   79 1    
    18    8   80 1    
    19    9   10 ar   
    20    9   14 ar   
    21   10   11 ar   
    22   10   81 1    
    23   11   12 ar   
    24   11   71 1    
    25   12   13 ar   
    26   12   82 1    
    27   13   14 ar   
    28   13   15 1    
    29   14   83 1    
    30   15   16 1    
    31   15   84 1    
    32   15   85 1    
    33   16   17 1    
    34   17   18 1    
    35   17   86 1    
    36   17   87 1    
    37   18   19 1    
    38   18   37 1    
    39   18   88 1    
    40   19   20 am   BACKBONE|DICT|INTERRES
    41   19   89 1    
    42   20   21 2    
    43   20   22 1    
    44   22   23 1    
    45   22   24 1    
    46   22   90 1    
    47   23   91 1    
    48   23   92 1    
    49   23   93 1    
    50   24   25 am   BACKBONE|DICT|INTERRES
    51   24   94 1    
    52   25   26 2    
    53   25   27 1    
    54   27   28 1    
    55   27   29 1    
    56   27   95 1    
    57   28   96 1    
    58   28   97 1    
    59   28   98 1    
    60   29   30 am   BACKBONE|DICT|INTERRES
    61   29   99 1    
    62   30   31 2    
    63   30   32 1    
    64   32   33 1    
    65   32   34 1    
    66   32  100 1    
    67   33  101 1    
    68   33  102 1    
    69   33  103 1    
    70   34   35 am   BACKBONE|DICT|INTERRES
    71   34  104 1    
    72   35   36 2    
    73   37   38 2    
    74   37   39 am   BACKBONE|DICT|INTERRES
    75   39   40 1    
    76   39  105 1    
    77   40   41 1    
    78   40   42 1    
    79   40  106 1    
    80   41  107 1    
    81   41  108 1    
    82   41  109 1    
    83   42   43 2    
    84   42   44 am   BACKBONE|DICT|INTERRES
    85   44   45 1    
    86   44  110 1    
    87   45   46 1    
    88   45   47 1    
    89   45  111 1    
    90   46  112 1    
    91   46  113 1    
    92   46  114 1    
    93   47   48 2    
    94   47   49 am   BACKBONE|DICT|INTERRES
    95   49   50 1    
    96   49  115 1    
    97   50   51 1    
    98   50   52 1    
    99   50  116 1    
   100   51  117 1    
   101   51  118 1    
   102   51  119 1    
   103   52   53 2    
   104   52   54 am   BACKBONE|DICT|INTERRES
   105   54   55 1    
   106   54  120 1    
   107   55   56 1    
   108   55   57 1    
   109   55  121 1    
   110   56  122 1    
   111   56  123 1    
   112   56  124 1    
   113   57   58 2    
   114   57   59 am   BACKBONE|DICT|INTERRES
   115   59   60 1    
   116   59  125 1    
   117   60   61 1    
   118   60   62 1    
   119   60  126 1    
   120   61  127 1    
   121   61  128 1    
   122   61  129 1    
   123   62   63 2    
   124   62   64 am   BACKBONE|DICT|INTERRES
   125   64   65 1    
   126   64  130 1    
   127   65   66 1    
   128   65   69 1    
   129   65  131 1    
   130   66   67 am   BACKBONE|DICT|INTERRES
   131   66   68 2    
   132   67  132 1    
   133   67  133 1    
   134   69   70 1    
   135   69  134 1    
   136   69  135 1    
   137   70   71 1    
   138   71  136 1    
   139   71  137 1    
@<TRIPOS>SUBSTRUCTURE
     1 UNK         1 GROUP             0       ****    0 ROOT    
