@<TRIPOS>MOLECULE
3R137
137   139    1
SMALL
USER_CHARGES


@<TRIPOS>ATOM
      1 CA         22.7565   -4.7643   -3.9048 C.3       0 UNK        -0.2020 
      2 C          23.5737   -4.2775   -2.7182 C.2       0 UNK         0.4855 
      3 O          23.1243   -3.3960   -1.9850 O.2       0 UNK        -0.5197 
      4 N          24.7781   -4.8330   -2.5333 N.am      1 UNK        -0.4892 
      5 CA         25.7479   -4.4706   -1.4932 C.3       1 UNK         0.0835 
      6 C6         26.9895   -5.4050   -1.4991 C.3       12 UNK        -0.0855 
      7 S7         27.6827   -5.7613   -3.1580 S.3       12 UNK        -0.2931 
      8 C8         29.4563   -5.9541   -2.8013 C.3       12 UNK         0.0378 
      9 C9         30.2578   -4.7050   -3.1438 C.ar      12 UNK        -0.0802 
     10 C10        30.9271   -4.6183   -4.3701 C.ar      12 UNK        -0.0944 
     11 C11        31.7384   -3.5172   -4.6619 C.ar      12 UNK        -0.0787 
     12 C12        31.8808   -2.5032   -3.7132 C.ar      12 UNK        -0.0862 
     13 C13        31.1725   -2.5465   -2.5106 C.ar      12 UNK        -0.0733 
     14 C14        30.3681   -3.6554   -2.2253 C.ar      12 UNK        -0.0832 
     15 C15        31.2833   -1.3897   -1.5263 C.3       12 UNK         0.0240 
     16 S16        30.8151    0.2058   -2.2814 S.3       12 UNK        -0.2522 
     17 C17        29.0757   -0.0964   -2.7349 C.3       12 UNK        -0.0967 
     18 CA         28.8243   -0.0946   -4.2681 C.3       5 UNK         0.0660 
     19 N          27.6608   -0.9182   -4.6152 N.am      5 UNK        -0.4015 
     20 C          27.1383   -1.0997   -5.8378 C.2       4 UNK         0.4946 
     21 O          27.6130   -0.6412   -6.8753 O.2       4 UNK        -0.5353 
     22 CA         25.8086   -1.8669   -5.9067 C.3       4 UNK         0.0277 
     23 CB         26.0409   -3.3853   -5.8795 C.3       4 UNK        -0.1981 
     24 N          24.8967   -1.4747   -4.8286 N.am      4 UNK        -0.4209 
     25 C          24.3080   -0.2723   -4.7412 C.2       3 UNK         0.4942 
     26 O          24.4326    0.6125   -5.5853 O.2       3 UNK        -0.5208 
     27 CA         23.4857    0.0149   -3.4758 C.3       3 UNK         0.0250 
     28 CB         22.0630   -0.5516   -3.6026 C.3       3 UNK        -0.1990 
     29 N          24.1343   -0.5041   -2.2698 N.am      3 UNK        -0.4232 
     30 C          25.2663    0.0084   -1.7618 C.2       2 UNK         0.4993 
     31 O          25.8366    0.9946   -2.2300 O.2       2 UNK        -0.5286 
     32 CA         25.8995   -0.7246   -0.5640 C.3       2 UNK         0.0209 
     33 CB         25.3505   -0.1660    0.7581 C.3       2 UNK        -0.1931 
     34 N          25.7173   -2.1807   -0.5936 N.am      2 UNK        -0.4546 
     35 C          26.1326   -2.9811   -1.5858 C.2       1 UNK         0.5154 
     36 O          26.7386   -2.5706   -2.5746 O.2       1 UNK        -0.5181 
     37 C          28.7017    1.3473   -4.8073 C.2       5 UNK         0.5014 
     38 O          29.6638    1.8767   -5.3642 O.2       5 UNK        -0.5248 
     39 N          27.5136    1.9463   -4.6389 N.am      6 UNK        -0.4434 
     40 CA         27.1778    3.2715   -5.1536 C.3       6 UNK         0.0363 
     41 CB         25.9459    3.8084   -4.4064 C.3       6 UNK        -0.1936 
     42 C          26.9388    3.2838   -6.6740 C.2       6 UNK         0.5081 
     43 O          27.4279    4.1899   -7.3496 O.2       6 UNK        -0.5248 
     44 N          26.1560    2.3199   -7.1793 N.am      7 UNK        -0.4718 
     45 CA         25.6850    2.2886   -8.5662 C.3       7 UNK         0.0273 
     46 CB         24.4797    1.3419   -8.6837 C.3       7 UNK        -0.1935 
     47 C          26.7581    1.9095   -9.5976 C.2       7 UNK         0.5018 
     48 O          26.7962    2.5230  -10.6660 O.2       7 UNK        -0.5186 
     49 N          27.5758    0.8905   -9.3011 N.am      8 UNK        -0.4240 
     50 CA         28.5765    0.3678  -10.2314 C.3       8 UNK         0.0235 
     51 CB         28.9399   -1.0758   -9.8470 C.3       8 UNK        -0.2000 
     52 C          29.8239    1.2592  -10.2449 C.2       8 UNK         0.4941 
     53 O          30.4716    1.4092   -9.2087 O.2       8 UNK        -0.5273 
     54 N          30.1749    1.7912  -11.4244 N.am      9 UNK        -0.4262 
     55 CA         31.3677    2.6211  -11.6397 C.3       9 UNK         0.0264 
     56 CB         31.3649    3.1666  -13.0767 C.3       9 UNK        -0.1955 
     57 C          32.6856    1.8832  -11.3423 C.2       9 UNK         0.5031 
     58 O          33.6255    2.4981  -10.8371 O.2       9 UNK        -0.5390 
     59 N          32.7098    0.5689  -11.6082 N.am      10 UNK        -0.4204 
     60 CA         33.8137   -0.3395  -11.2852 C.3       10 UNK         0.0237 
     61 CB         33.5434   -1.7085  -11.9308 C.3       10 UNK        -0.1985 
     62 C          34.0667   -0.5013   -9.7736 C.2       10 UNK         0.4970 
     63 O          35.1885   -0.8382   -9.3931 O.2       10 UNK        -0.4914 
     64 N          33.0407   -0.2553   -8.9484 N.am      11 UNK        -0.4285 
     65 CA         33.1280   -0.2466   -7.4824 C.3       11 UNK         0.1007 
     66 C          33.5360    1.1366   -6.8947 C.2       11 UNK         0.5703 
     67 N          33.7420    2.1785   -7.6945 N.am      11 UNK        -0.7361 
     68 O          33.7085    1.2595   -5.6845 O.2       11 UNK        -0.4986 
     69 C69        31.8304   -0.7954   -6.8323 C.3       12 UNK        -0.0947 
     70 S70        31.5172   -2.5441   -7.2588 S.3       12 UNK        -0.2240 
     71 C71        32.4780   -3.4316   -5.9894 C.3       12 UNK         0.0194 
     72 H72        21.7730   -5.0946   -3.5717 H         1 UNK         0.0906 
     73 H73        22.6197   -3.9578   -4.6244 H         1 UNK         0.0906 
     74 H74        23.2377   -5.5976   -4.4165 H         1 UNK         0.0906 
     75 H75        25.1159   -5.5244   -3.1890 H         1 UNK         0.3140 
     76 H76        25.2443   -4.6175   -0.5353 H         1 UNK         0.1085 
     77 H77        26.7107   -6.3648   -1.0612 H         1 UNK         0.0836 
     78 H78        27.7684   -5.0080   -0.8458 H         1 UNK         0.0836 
     79 H79        29.8300   -6.8003   -3.3800 H         1 UNK         0.0731 
     80 H80        29.6078   -6.2250   -1.7554 H         1 UNK         0.0731 
     81 H81        30.8306   -5.4176   -5.0923 H         1 UNK         0.1312 
     82 H82        32.5261   -1.6600   -3.9148 H         1 UNK         0.1406 
     83 H83        29.8349   -3.7079   -1.2863 H         1 UNK         0.1631 
     84 H84        32.3120   -1.3239   -1.1698 H         1 UNK         0.0717 
     85 H85        30.6610   -1.5621   -0.6467 H         1 UNK         0.0717 
     86 H86        28.7866   -1.0568   -2.3099 H         1 UNK         0.0934 
     87 H87        28.4548    0.6416   -2.2250 H         1 UNK         0.0934 
     88 H88        29.6742   -0.5656   -4.7643 H         1 UNK         0.0739 
     89 H89        27.2284   -1.4220   -3.8418 H         1 UNK         0.3093 
     90 H90        25.3316   -1.6175   -6.8569 H         1 UNK         0.0818 
     91 H91        26.6941   -3.6917   -6.6976 H         1 UNK         0.0819 
     92 H92        26.5144   -3.7063   -4.9524 H         1 UNK         0.0819 
     93 H93        25.1056   -3.9340   -5.9881 H         1 UNK         0.0819 
     94 H94        24.8076   -2.1132   -4.0518 H         1 UNK         0.3041 
     95 H95        23.4055    1.0996   -3.3740 H         1 UNK         0.0784 
     96 H96        21.5514   -0.1235   -4.4658 H         1 UNK         0.0793 
     97 H97        22.0629   -1.6337   -3.7304 H         1 UNK         0.0793 
     98 H98        21.4633   -0.3183   -2.7226 H         1 UNK         0.0793 
     99 H99        23.7450   -1.3475   -1.8614 H         1 UNK         0.3024 
    100 H100       26.9727   -0.5283   -0.5952 H         1 UNK         0.1171 
    101 H101       25.8611   -0.6026    1.6168 H         1 UNK         0.0786 
    102 H102       25.4936    0.9142    0.8141 H         1 UNK         0.0786 
    103 H103       24.2825   -0.3594    0.8667 H         1 UNK         0.0786 
    104 H104       25.1890   -2.5831    0.1677 H         1 UNK         0.2977 
    105 H105       26.7914    1.4605   -4.1184 H         1 UNK         0.3127 
    106 H106       28.0151    3.9409   -4.9436 H         1 UNK         0.0770 
    107 H107       25.0738    3.1695   -4.5513 H         1 UNK         0.0814 
    108 H108       25.6817    4.8073   -4.7561 H         1 UNK         0.0814 
    109 H109       26.1323    3.8778   -3.3344 H         1 UNK         0.0814 
    110 H110       25.7541    1.6291   -6.5503 H         1 UNK         0.2983 
    111 H111       25.3387    3.2933   -8.8195 H         1 UNK         0.0947 
    112 H112       24.7409    0.3211   -8.4024 H         1 UNK         0.0806 
    113 H113       24.1008    1.3131   -9.7063 H         1 UNK         0.0806 
    114 H114       23.6583    1.6652   -8.0440 H         1 UNK         0.0806 
    115 H115       27.5299    0.4516   -8.3822 H         1 UNK         0.3000 
    116 H116       28.1425    0.3418  -11.2336 H         1 UNK         0.0850 
    117 H117       29.6709   -1.4965  -10.5384 H         1 UNK         0.0810 
    118 H118       28.0633   -1.7235   -9.8635 H         1 UNK         0.0810 
    119 H119       29.3703   -1.1280   -8.8469 H         1 UNK         0.0810 
    120 H120       29.5798    1.6352  -12.2260 H         1 UNK         0.3040 
    121 H121       31.3068    3.4678  -10.9524 H         1 UNK         0.0766 
    122 H122       30.4781    3.7703  -13.2706 H         1 UNK         0.0812 
    123 H123       31.3950    2.3649  -13.8157 H         1 UNK         0.0812 
    124 H124       32.2325    3.8043  -13.2527 H         1 UNK         0.0812 
    125 H125       31.8899    0.1559  -12.0281 H         1 UNK         0.3205 
    126 H126       34.7237    0.0747  -11.7244 H         1 UNK         0.0754 
    127 H127       34.3642   -2.4004  -11.7365 H         1 UNK         0.0769 
    128 H128       33.4428   -1.6255  -13.0133 H         1 UNK         0.0769 
    129 H129       32.6331   -2.1663  -11.5409 H         1 UNK         0.0769 
    130 H130       32.1621    0.0781   -9.3244 H         1 UNK         0.2981 
    131 H131       33.9351   -0.9183   -7.1853 H         1 UNK         0.0541 
    132 H132       34.0161    3.0586   -7.2886 H         1 UNK         0.3459 
    133 H133       33.6252    2.1021   -8.6963 H         1 UNK         0.3459 
    134 H134       31.8620   -0.6904   -5.7507 H         1 UNK         0.0612 
    135 H135       30.9683   -0.2079   -7.1510 H         1 UNK         0.0612 
    136 H136       32.6896   -4.4367   -6.3571 H         1 UNK         0.0624 
    137 H137       33.4473   -2.9497   -5.8552 H         1 UNK         0.0624 
@<TRIPOS>BOND
     1    1    2 1    
     2    1   72 1    
     3    1   73 1    
     4    1   74 1    
     5    2    3 2    
     6    2    4 am   BACKBONE|DICT|INTERRES
     7    4    5 1    
     8    4   75 1    
     9    5    6 1    
    10    5   35 1    
    11    5   76 1    
    12    6    7 1    
    13    6   77 1    
    14    6   78 1    
    15    7    8 1    
    16    8    9 1    
    17    8   79 1    
    18    8   80 1    
    19    9   10 ar   
    20    9   14 ar   
    21   10   11 ar   
    22   10   81 1    
    23   11   12 ar   
    24   11   71 1    
    25   12   13 ar   
    26   12   82 1    
    27   13   14 ar   
    28   13   15 1    
    29   14   83 1    
    30   15   16 1    
    31   15   84 1    
    32   15   85 1    
    33   16   17 1    
    34   17   18 1    
    35   17   86 1    
    36   17   87 1    
    37   18   19 1    
    38   18   37 1    
    39   18   88 1    
    40   19   20 am   BACKBONE|DICT|INTERRES
    41   19   89 1    
    42   20   21 2    
    43   20   22 1    
    44   22   23 1    
    45   22   24 1    
    46   22   90 1    
    47   23   91 1    
    48   23   92 1    
    49   23   93 1    
    50   24   25 am   BACKBONE|DICT|INTERRES
    51   24   94 1    
    52   25   26 2    
    53   25   27 1    
    54   27   28 1    
    55   27   29 1    
    56   27   95 1    
    57   28   96 1    
    58   28   97 1    
    59   28   98 1    
    60   29   30 am   BACKBONE|DICT|INTERRES
    61   29   99 1    
    62   30   31 2    
    63   30   32 1    
    64   32   33 1    
    65   32   34 1    
    66   32  100 1    
    67   33  101 1    
    68   33  102 1    
    69   33  103 1    
    70   34   35 am   BACKBONE|DICT|INTERRES
    71   34  104 1    
    72   35   36 2    
    73   37   38 2    
    74   37   39 am   BACKBONE|DICT|INTERRES
    75   39   40 1    
    76   39  105 1    
    77   40   41 1    
    78   40   42 1    
    79   40  106 1    
    80   41  107 1    
    81   41  108 1    
    82   41  109 1    
    83   42   43 2    
    84   42   44 am   BACKBONE|DICT|INTERRES
    85   44   45 1    
    86   44  110 1    
    87   45   46 1    
    88   45   47 1    
    89   45  111 1    
    90   46  112 1    
    91   46  113 1    
    92   46  114 1    
    93   47   48 2    
    94   47   49 am   BACKBONE|DICT|INTERRES
    95   49   50 1    
    96   49  115 1    
    97   50   51 1    
    98   50   52 1    
    99   50  116 1    
   100   51  117 1    
   101   51  118 1    
   102   51  119 1    
   103   52   53 2    
   104   52   54 am   BACKBONE|DICT|INTERRES
   105   54   55 1    
   106   54  120 1    
   107   55   56 1    
   108   55   57 1    
   109   55  121 1    
   110   56  122 1    
   111   56  123 1    
   112   56  124 1    
   113   57   58 2    
   114   57   59 am   BACKBONE|DICT|INTERRES
   115   59   60 1    
   116   59  125 1    
   117   60   61 1    
   118   60   62 1    
   119   60  126 1    
   120   61  127 1    
   121   61  128 1    
   122   61  129 1    
   123   62   63 2    
   124   62   64 am   BACKBONE|DICT|INTERRES
   125   64   65 1    
   126   64  130 1    
   127   65   66 1    
   128   65   69 1    
   129   65  131 1    
   130   66   67 am   BACKBONE|DICT|INTERRES
   131   66   68 2    
   132   67  132 1    
   133   67  133 1    
   134   69   70 1    
   135   69  134 1    
   136   69  135 1    
   137   70   71 1    
   138   71  136 1    
   139   71  137 1    
@<TRIPOS>SUBSTRUCTURE
     1 UNK         1 GROUP             0       ****    0 ROOT    
