@<TRIPOS>MOLECULE
3R137
137   139    1
SMALL
USER_CHARGES


@<TRIPOS>ATOM
      1 CA         29.7796   -8.8423   -0.1409 C.3       0 UNK        -0.2020 
      2 C          29.3353   -7.3880   -0.0977 C.2       0 UNK         0.4855 
      3 O          28.9143   -6.9080    0.9550 O.2       0 UNK        -0.5197 
      4 N          29.4245   -6.6823   -1.2337 N.am      1 UNK        -0.4892 
      5 CA         29.0257   -5.2740   -1.3781 C.3       1 UNK         0.0835 
      6 C6         29.6669   -4.6383   -2.6411 C.3       12 UNK        -0.0855 
      7 S7         30.1224   -2.8891   -2.3990 S.3       12 UNK        -0.2931 
      8 C8         28.8397   -2.0440   -3.3718 C.3       12 UNK         0.0378 
      9 C9         29.1173   -0.5519   -3.4509 C.ar      12 UNK        -0.0802 
     10 C10        29.8109   -0.0255   -4.5429 C.ar      12 UNK        -0.0944 
     11 C11        30.0681    1.3456   -4.6312 C.ar      12 UNK        -0.0787 
     12 C12        29.6339    2.1931   -3.6074 C.ar      12 UNK        -0.0862 
     13 C13        28.9285    1.6788   -2.5135 C.ar      12 UNK        -0.0733 
     14 C14        28.6761    0.3050   -2.4393 C.ar      12 UNK        -0.0832 
     15 C15        28.4143    2.6053   -1.4217 C.3       12 UNK         0.0240 
     16 S16        26.6092    2.8318   -1.5305 S.3       12 UNK        -0.2522 
     17 C17        26.4420    3.8101   -3.0627 C.3       12 UNK        -0.0967 
     18 CA         26.2052    2.9321   -4.3192 C.3       5 UNK         0.0660 
     19 N          25.0177    2.0865   -4.2031 N.am      5 UNK        -0.4015 
     20 C          24.8000    0.9896   -4.9376 C.2       4 UNK         0.4946 
     21 O          25.5573    0.5901   -5.8262 O.2       4 UNK        -0.5353 
     22 CA         23.5039    0.2171   -4.6446 C.3       4 UNK         0.0277 
     23 CB         22.3724    0.6974   -5.5683 C.3       4 UNK        -0.1981 
     24 N          23.6996   -1.2221   -4.8294 N.am      4 UNK        -0.4209 
     25 C          24.4291   -1.9940   -4.0144 C.2       3 UNK         0.4942 
     26 O          24.9334   -1.6029   -2.9579 O.2       3 UNK        -0.5208 
     27 CA         24.6369   -3.4438   -4.4652 C.3       3 UNK         0.0250 
     28 CB         25.7134   -3.5357   -5.5634 C.3       3 UNK        -0.1990 
     29 N          25.0371   -4.2428   -3.3109 N.am      3 UNK        -0.4232 
     30 C          24.7993   -5.5465   -3.1424 C.2       2 UNK         0.4993 
     31 O          24.2474   -6.2542   -3.9877 O.2       2 UNK        -0.5286 
     32 CA         25.2854   -6.1617   -1.8169 C.3       2 UNK         0.0209 
     33 CB         24.7990   -7.6103   -1.6192 C.3       2 UNK        -0.1931 
     34 N          26.7467   -6.1418   -1.7352 N.am      2 UNK        -0.4546 
     35 C          27.4906   -5.0890   -1.3671 C.2       1 UNK         0.5154 
     36 O          27.0047   -4.0081   -1.0311 O.2       1 UNK        -0.5181 
     37 C          26.1313    3.7840   -5.5990 C.2       5 UNK         0.5014 
     38 O          25.4772    4.8293   -5.6020 O.2       5 UNK        -0.5248 
     39 N          26.7945    3.3167   -6.6590 N.am      6 UNK        -0.4434 
     40 CA         26.9115    3.9672   -7.9574 C.3       6 UNK         0.0363 
     41 CB         25.6486    3.6981   -8.7968 C.3       6 UNK        -0.1936 
     42 C          28.1539    3.4045   -8.6512 C.2       6 UNK         0.5081 
     43 O          28.5839    2.2951   -8.3244 O.2       6 UNK        -0.5248 
     44 N          28.6844    4.1470   -9.6321 N.am      7 UNK        -0.4718 
     45 CA         29.8630    3.7679  -10.4255 C.3       7 UNK         0.0273 
     46 CB         30.2100    4.9031  -11.4014 C.3       7 UNK        -0.1935 
     47 C          29.7074    2.4358  -11.1823 C.2       7 UNK         0.5018 
     48 O          30.6978    1.7307  -11.3750 O.2       7 UNK        -0.5186 
     49 N          28.4616    2.0864  -11.5349 N.am      8 UNK        -0.4240 
     50 CA         28.0662    0.8122  -12.1407 C.3       8 UNK         0.0235 
     51 CB         26.5689    0.8658  -12.4857 C.3       8 UNK        -0.2000 
     52 C          28.3729   -0.4271  -11.2761 C.2       8 UNK         0.4941 
     53 O          28.5123   -1.5159  -11.8342 O.2       8 UNK        -0.5273 
     54 N          28.4961   -0.2537   -9.9500 N.am      9 UNK        -0.4262 
     55 CA         28.9132   -1.3074   -9.0199 C.3       9 UNK         0.0264 
     56 CB         28.3643   -0.9974   -7.6183 C.3       9 UNK        -0.1955 
     57 C          30.4406   -1.5341   -9.0011 C.2       9 UNK         0.5031 
     58 O          30.8811   -2.5158   -8.4022 O.2       9 UNK        -0.5390 
     59 N          31.2118   -0.6586   -9.6698 N.am      10 UNK        -0.4204 
     60 CA         32.6476   -0.7667   -9.9590 C.3       10 UNK         0.0237 
     61 CB         32.9009   -1.9054  -10.9709 C.3       10 UNK        -0.1985 
     62 C          33.5484   -0.8624   -8.7115 C.2       10 UNK         0.4970 
     63 O          34.4817   -1.6677   -8.6885 O.2       10 UNK        -0.4914 
     64 N          33.2707   -0.0251   -7.7039 N.am      11 UNK        -0.4285 
     65 CA         34.0833    0.0929   -6.4803 C.3       11 UNK         0.1007 
     66 C          35.4287    0.8607   -6.6503 C.2       11 UNK         0.5703 
     67 N          35.6839    1.5212   -7.7741 N.am      11 UNK        -0.7361 
     68 O          36.2648    0.8412   -5.7498 O.2       11 UNK        -0.4986 
     69 C69        33.2521    0.6118   -5.2785 C.3       12 UNK        -0.0947 
     70 S70        32.5387    2.2786   -5.5133 S.3       12 UNK        -0.2240 
     71 C71        30.7878    1.9128   -5.8469 C.3       12 UNK         0.0194 
     72 H72        30.5879   -9.0086    0.5707 H         1 UNK         0.0906 
     73 H73        28.9500   -9.4960    0.1273 H         1 UNK         0.0906 
     74 H74        30.1341   -9.1328   -1.1297 H         1 UNK         0.0906 
     75 H75        29.7876   -7.1278   -2.0654 H         1 UNK         0.3140 
     76 H76        29.4053   -4.7506   -0.4971 H         1 UNK         0.1085 
     77 H77        30.5994   -5.1501   -2.8853 H         1 UNK         0.0836 
     78 H78        29.0369   -4.7573   -3.5255 H         1 UNK         0.0836 
     79 H79        27.8588   -2.2200   -2.9274 H         1 UNK         0.0731 
     80 H80        28.8091   -2.4694   -4.3757 H         1 UNK         0.0731 
     81 H81        30.1534   -0.6877   -5.3257 H         1 UNK         0.1312 
     82 H82        29.8292    3.2547   -3.6745 H         1 UNK         0.1406 
     83 H83        28.1268   -0.0966   -1.5981 H         1 UNK         0.1631 
     84 H84        28.9099    3.5764   -1.4641 H         1 UNK         0.0717 
     85 H85        28.6579    2.1812   -0.4465 H         1 UNK         0.0717 
     86 H86        25.6144    4.5082   -2.9222 H         1 UNK         0.0934 
     87 H87        27.3337    4.4272   -3.1886 H         1 UNK         0.0934 
     88 H88        27.0610    2.2650   -4.4222 H         1 UNK         0.0739 
     89 H89        24.3412    2.3630   -3.5072 H         1 UNK         0.3093 
     90 H90        23.2109    0.3936   -3.6071 H         1 UNK         0.0818 
     91 H91        22.1820    1.7629   -5.4322 H         1 UNK         0.0819 
     92 H92        22.6174    0.5434   -6.6202 H         1 UNK         0.0819 
     93 H93        21.4391    0.1739   -5.3598 H         1 UNK         0.0819 
     94 H94        23.3599   -1.6136   -5.6957 H         1 UNK         0.3041 
     95 H95        23.6864   -3.8187   -4.8516 H         1 UNK         0.0784 
     96 H96        25.4376   -2.9452   -6.4380 H         1 UNK         0.0793 
     97 H97        26.6759   -3.1646   -5.2129 H         1 UNK         0.0793 
     98 H98        25.8529   -4.5636   -5.8985 H         1 UNK         0.0793 
     99 H99        25.4818   -3.7171   -2.5629 H         1 UNK         0.3024 
    100 H100       24.8707   -5.5584   -1.0056 H         1 UNK         0.1171 
    101 H101       23.7101   -7.6646   -1.6556 H         1 UNK         0.0786 
    102 H102       25.1853   -8.2776   -2.3907 H         1 UNK         0.0786 
    103 H103       25.1089   -8.0031   -0.6505 H         1 UNK         0.0786 
    104 H104       27.2273   -6.9853   -2.0128 H         1 UNK         0.2977 
    105 H105       27.2950    2.4362   -6.5968 H         1 UNK         0.3127 
    106 H106       27.0451    5.0416   -7.8139 H         1 UNK         0.0770 
    107 H107       25.7190    4.1667   -9.7790 H         1 UNK         0.0814 
    108 H108       24.7573    4.0986   -8.3135 H         1 UNK         0.0814 
    109 H109       25.4909    2.6297   -8.9522 H         1 UNK         0.0814 
    110 H110       28.2652    5.0414   -9.8457 H         1 UNK         0.2983 
    111 H111       30.6976    3.6446   -9.7317 H         1 UNK         0.0947 
    112 H112       31.0960    4.6558  -11.9883 H         1 UNK         0.0806 
    113 H113       30.4252    5.8312  -10.8715 H         1 UNK         0.0806 
    114 H114       29.3978    5.0961  -12.1033 H         1 UNK         0.0806 
    115 H115       27.7187    2.7362  -11.3241 H         1 UNK         0.3000 
    116 H116       28.6303    0.7033  -13.0695 H         1 UNK         0.0850 
    117 H117       25.9541    1.0019  -11.5948 H         1 UNK         0.0810 
    118 H118       26.2454   -0.0587  -12.9663 H         1 UNK         0.0810 
    119 H119       26.3480    1.6804  -13.1757 H         1 UNK         0.0810 
    120 H120       28.3831    0.6746   -9.5533 H         1 UNK         0.3040 
    121 H121       28.4632   -2.2491   -9.3415 H         1 UNK         0.0766 
    122 H122       27.2768   -0.9190   -7.6256 H         1 UNK         0.0812 
    123 H123       28.7580   -0.0613   -7.2270 H         1 UNK         0.0812 
    124 H124       28.6236   -1.7871   -6.9125 H         1 UNK         0.0812 
    125 H125       30.7531    0.1220  -10.1296 H         1 UNK         0.3205 
    126 H126       32.9232    0.1673  -10.4510 H         1 UNK         0.0754 
    127 H127       33.9416   -1.9180  -11.2974 H         1 UNK         0.0769 
    128 H128       32.2853   -1.7858  -11.8627 H         1 UNK         0.0769 
    129 H129       32.6815   -2.8835  -10.5412 H         1 UNK         0.0769 
    130 H130       32.5041    0.6232   -7.7961 H         1 UNK         0.2981 
    131 H131       34.3842   -0.9212   -6.2096 H         1 UNK         0.0541 
    132 H132       35.0068    1.5491   -8.5183 H         1 UNK         0.3459 
    133 H133       36.5616    2.0069   -7.8710 H         1 UNK         0.3459 
    134 H134       32.4609   -0.1029   -5.0603 H         1 UNK         0.0612 
    135 H135       33.8648    0.6355   -4.3756 H         1 UNK         0.0612 
    136 H136       30.7163    1.2298   -6.6939 H         1 UNK         0.0624 
    137 H137       30.2938    2.8337   -6.1598 H         1 UNK         0.0624 
@<TRIPOS>BOND
     1    1    2 1    
     2    1   72 1    
     3    1   73 1    
     4    1   74 1    
     5    2    3 2    
     6    2    4 am   BACKBONE|DICT|INTERRES
     7    4    5 1    
     8    4   75 1    
     9    5    6 1    
    10    5   35 1    
    11    5   76 1    
    12    6    7 1    
    13    6   77 1    
    14    6   78 1    
    15    7    8 1    
    16    8    9 1    
    17    8   79 1    
    18    8   80 1    
    19    9   10 ar   
    20    9   14 ar   
    21   10   11 ar   
    22   10   81 1    
    23   11   12 ar   
    24   11   71 1    
    25   12   13 ar   
    26   12   82 1    
    27   13   14 ar   
    28   13   15 1    
    29   14   83 1    
    30   15   16 1    
    31   15   84 1    
    32   15   85 1    
    33   16   17 1    
    34   17   18 1    
    35   17   86 1    
    36   17   87 1    
    37   18   19 1    
    38   18   37 1    
    39   18   88 1    
    40   19   20 am   BACKBONE|DICT|INTERRES
    41   19   89 1    
    42   20   21 2    
    43   20   22 1    
    44   22   23 1    
    45   22   24 1    
    46   22   90 1    
    47   23   91 1    
    48   23   92 1    
    49   23   93 1    
    50   24   25 am   BACKBONE|DICT|INTERRES
    51   24   94 1    
    52   25   26 2    
    53   25   27 1    
    54   27   28 1    
    55   27   29 1    
    56   27   95 1    
    57   28   96 1    
    58   28   97 1    
    59   28   98 1    
    60   29   30 am   BACKBONE|DICT|INTERRES
    61   29   99 1    
    62   30   31 2    
    63   30   32 1    
    64   32   33 1    
    65   32   34 1    
    66   32  100 1    
    67   33  101 1    
    68   33  102 1    
    69   33  103 1    
    70   34   35 am   BACKBONE|DICT|INTERRES
    71   34  104 1    
    72   35   36 2    
    73   37   38 2    
    74   37   39 am   BACKBONE|DICT|INTERRES
    75   39   40 1    
    76   39  105 1    
    77   40   41 1    
    78   40   42 1    
    79   40  106 1    
    80   41  107 1    
    81   41  108 1    
    82   41  109 1    
    83   42   43 2    
    84   42   44 am   BACKBONE|DICT|INTERRES
    85   44   45 1    
    86   44  110 1    
    87   45   46 1    
    88   45   47 1    
    89   45  111 1    
    90   46  112 1    
    91   46  113 1    
    92   46  114 1    
    93   47   48 2    
    94   47   49 am   BACKBONE|DICT|INTERRES
    95   49   50 1    
    96   49  115 1    
    97   50   51 1    
    98   50   52 1    
    99   50  116 1    
   100   51  117 1    
   101   51  118 1    
   102   51  119 1    
   103   52   53 2    
   104   52   54 am   BACKBONE|DICT|INTERRES
   105   54   55 1    
   106   54  120 1    
   107   55   56 1    
   108   55   57 1    
   109   55  121 1    
   110   56  122 1    
   111   56  123 1    
   112   56  124 1    
   113   57   58 2    
   114   57   59 am   BACKBONE|DICT|INTERRES
   115   59   60 1    
   116   59  125 1    
   117   60   61 1    
   118   60   62 1    
   119   60  126 1    
   120   61  127 1    
   121   61  128 1    
   122   61  129 1    
   123   62   63 2    
   124   62   64 am   BACKBONE|DICT|INTERRES
   125   64   65 1    
   126   64  130 1    
   127   65   66 1    
   128   65   69 1    
   129   65  131 1    
   130   66   67 am   BACKBONE|DICT|INTERRES
   131   66   68 2    
   132   67  132 1    
   133   67  133 1    
   134   69   70 1    
   135   69  134 1    
   136   69  135 1    
   137   70   71 1    
   138   71  136 1    
   139   71  137 1    
@<TRIPOS>SUBSTRUCTURE
     1 UNK         1 GROUP             0       ****    0 ROOT    
