@<TRIPOS>MOLECULE
3R137
137   139    1
SMALL
USER_CHARGES


@<TRIPOS>ATOM
      1 CA         25.3701   -2.8072    3.3039 C.3       0 UNK        -0.2020 
      2 C          25.8488   -1.8907    2.1878 C.2       0 UNK         0.4855 
      3 O          25.7208   -0.6709    2.3000 O.2       0 UNK        -0.5197 
      4 N          26.4085   -2.4670    1.1172 N.am      1 UNK        -0.4892 
      5 CA         26.8804   -1.7475   -0.0711 C.3       1 UNK         0.0835 
      6 C6         27.7727   -2.6393   -0.9663 C.3       12 UNK        -0.0855 
      7 S7         29.2802   -3.2125   -0.1084 S.3       12 UNK        -0.2931 
      8 C8         30.5784   -2.1906   -0.8960 C.3       12 UNK         0.0378 
      9 C9         30.8356   -2.4502   -2.3842 C.ar      12 UNK        -0.0802 
     10 C10        31.6680   -1.5649   -3.0783 C.ar      12 UNK        -0.0944 
     11 C11        31.9198   -1.7374   -4.4429 C.ar      12 UNK        -0.0787 
     12 C12        31.3330   -2.8078   -5.1227 C.ar      12 UNK        -0.0862 
     13 C13        30.5112   -3.7089   -4.4429 C.ar      12 UNK        -0.0733 
     14 C14        30.2736   -3.5307   -3.0780 C.ar      12 UNK        -0.0832 
     15 C15        29.8813   -4.8865   -5.1675 C.3       12 UNK         0.0240 
     16 S16        28.1998   -4.4907   -5.7372 S.3       12 UNK        -0.2522 
     17 C17        28.5229   -3.7603   -7.3804 C.3       12 UNK        -0.0967 
     18 CA         27.7760   -2.4307   -7.6516 C.3       5 UNK         0.0660 
     19 N          26.3459   -2.5234   -7.3427 N.am      5 UNK        -0.4015 
     20 C          25.4123   -1.6696   -7.7780 C.2       4 UNK         0.4946 
     21 O          25.6611   -0.5582   -8.2396 O.2       4 UNK        -0.5353 
     22 CA         23.9546   -2.1560   -7.7357 C.3       4 UNK         0.0277 
     23 CB         23.6955   -3.1398   -8.8887 C.3       4 UNK        -0.1981 
     24 N          23.6147   -2.8012   -6.4650 N.am      4 UNK        -0.4209 
     25 C          23.2221   -2.2010   -5.3320 C.2       3 UNK         0.4942 
     26 O          22.9781   -2.8502   -4.3150 O.2       3 UNK        -0.5208 
     27 CA         22.9953   -0.6729   -5.3110 C.3       3 UNK         0.0250 
     28 CB         21.5211   -0.3384   -5.5905 C.3       3 UNK        -0.1990 
     29 N          23.3907   -0.0738   -4.0387 N.am      3 UNK        -0.4232 
     30 C          24.6576    0.0134   -3.6173 C.2       2 UNK         0.4993 
     31 O          25.6158   -0.4027   -4.2743 O.2       2 UNK        -0.5286 
     32 CA         24.9151    0.7446   -2.2832 C.3       2 UNK         0.0209 
     33 CB         23.6365    1.1243   -1.4986 C.3       2 UNK        -0.1931 
     34 N          25.8607    0.0203   -1.4256 N.am      2 UNK        -0.4546 
     35 C          25.6926   -1.1959   -0.8867 C.2       1 UNK         0.5154 
     36 O          24.6765   -1.8830   -1.0217 O.2       1 UNK        -0.5181 
     37 C          28.5151   -1.2031   -7.0827 C.2       5 UNK         0.5014 
     38 O          29.3875   -0.6767   -7.7788 O.2       5 UNK        -0.5248 
     39 N          28.1738   -0.7418   -5.8706 N.am      6 UNK        -0.4434 
     40 CA         28.7990    0.4532   -5.2911 C.3       6 UNK         0.0363 
     41 CB         28.7206    0.4286   -3.7584 C.3       6 UNK        -0.1936 
     42 C          28.1801    1.7390   -5.8578 C.2       6 UNK         0.5081 
     43 O          28.9072    2.7071   -6.0746 O.2       6 UNK        -0.5248 
     44 N          26.8670    1.7170   -6.1328 N.am      7 UNK        -0.4718 
     45 CA         26.1372    2.8088   -6.7886 C.3       7 UNK         0.0273 
     46 CB         24.6244    2.5508   -6.7094 C.3       7 UNK        -0.1935 
     47 C          26.5799    3.0160   -8.2479 C.2       7 UNK         0.5018 
     48 O          26.7401    4.1584   -8.6781 O.2       7 UNK        -0.5186 
     49 N          26.8106    1.9072   -8.9652 N.am      8 UNK        -0.4240 
     50 CA         27.3856    1.8747  -10.3132 C.3       8 UNK         0.0235 
     51 CB         27.1236    0.4913  -10.9322 C.3       8 UNK        -0.2000 
     52 C          28.8932    2.1926  -10.3487 C.2       8 UNK         0.4941 
     53 O          29.4203    2.4369  -11.4347 O.2       8 UNK        -0.5273 
     54 N          29.5522    2.1716   -9.1797 N.am      9 UNK        -0.4262 
     55 CA         30.9822    2.3902   -8.9473 C.3       9 UNK         0.0264 
     56 CB         31.3801    3.8450   -9.2751 C.3       9 UNK        -0.1955 
     57 C          31.8597    1.3449   -9.6589 C.2       9 UNK         0.5031 
     58 O          32.8489    1.7013  -10.3035 O.2       9 UNK        -0.5390 
     59 N          31.5015    0.0609   -9.5016 N.am      10 UNK        -0.4204 
     60 CA         32.2019   -1.0935  -10.0837 C.3       10 UNK         0.0237 
     61 CB         31.4100   -2.3724   -9.7687 C.3       10 UNK        -0.1985 
     62 C          33.6650   -1.2454   -9.6224 C.2       10 UNK         0.4970 
     63 O          34.4593   -1.8715  -10.3250 O.2       10 UNK        -0.4914 
     64 N          33.9901   -0.6572   -8.4658 N.am      11 UNK        -0.4285 
     65 CA         35.3461   -0.5266   -7.9188 C.3       11 UNK         0.1007 
     66 C          36.2478    0.4886   -8.6832 C.2       11 UNK         0.5703 
     67 N          35.7222    1.3236   -9.5739 N.am      11 UNK        -0.7361 
     68 O          37.4571    0.5128   -8.4662 O.2       11 UNK        -0.4986 
     69 C69        35.3062   -0.1972   -6.4027 C.3       12 UNK        -0.0947 
     70 S70        34.4799   -1.4938   -5.4222 S.3       12 UNK        -0.2240 
     71 C71        32.8262   -0.7723   -5.1877 C.3       12 UNK         0.0194 
     72 H72        25.8801   -2.5626    4.2353 H         1 UNK         0.0906 
     73 H73        24.2988   -2.6815    3.4586 H         1 UNK         0.0906 
     74 H74        25.5594   -3.8569    3.0797 H         1 UNK         0.0906 
     75 H75        26.4831   -3.4732    1.0724 H         1 UNK         0.3140 
     76 H76        27.4798   -0.9015    0.2736 H         1 UNK         0.1085 
     77 H77        27.2187   -3.5179   -1.3033 H         1 UNK         0.0836 
     78 H78        28.0562   -2.1047   -1.8739 H         1 UNK         0.0836 
     79 H79        31.5113   -2.3537   -0.3548 H         1 UNK         0.0731 
     80 H80        30.3201   -1.1400   -0.7539 H         1 UNK         0.0731 
     81 H81        32.1188   -0.7330   -2.5541 H         1 UNK         0.1312 
     82 H82        31.5281   -2.9425   -6.1773 H         1 UNK         0.1406 
     83 H83        29.6379   -4.2409   -2.5696 H         1 UNK         0.1631 
     84 H84        29.8261   -5.7424   -4.4930 H         1 UNK         0.0717 
     85 H85        30.5024   -5.2074   -6.0052 H         1 UNK         0.0717 
     86 H86        29.5951   -3.6402   -7.5383 H         1 UNK         0.0934 
     87 H87        28.2119   -4.4990   -8.1210 H         1 UNK         0.0934 
     88 H88        27.8196   -2.2880   -8.7340 H         1 UNK         0.0739 
     89 H89        26.0532   -3.3874   -6.9109 H         1 UNK         0.3093 
     90 H90        23.3015   -1.3002   -7.9128 H         1 UNK         0.0818 
     91 H91        22.6468   -3.4356   -8.9277 H         1 UNK         0.0819 
     92 H92        23.9362   -2.6846   -9.8508 H         1 UNK         0.0819 
     93 H93        24.2950   -4.0466   -8.7994 H         1 UNK         0.0819 
     94 H94        23.7040   -3.8066   -6.4470 H         1 UNK         0.3041 
     95 H95        23.6087   -0.1875   -6.0669 H         1 UNK         0.0784 
     96 H96        21.2033   -0.7424   -6.5526 H         1 UNK         0.0793 
     97 H97        20.8618   -0.7569   -4.8289 H         1 UNK         0.0793 
     98 H98        21.3570    0.7389   -5.6234 H         1 UNK         0.0793 
     99 H99        22.6513    0.2504   -3.4334 H         1 UNK         0.3024 
    100 H100       25.4108    1.6768   -2.5594 H         1 UNK         0.1171 
    101 H101       23.0044    1.8038   -2.0716 H         1 UNK         0.0786 
    102 H102       23.8875    1.6380   -0.5704 H         1 UNK         0.0786 
    103 H103       23.0381    0.2508   -1.2367 H         1 UNK         0.0786 
    104 H104       26.7409    0.4904   -1.2686 H         1 UNK         0.2977 
    105 H105       27.4078   -1.1631   -5.3577 H         1 UNK         0.3127 
    106 H106       29.8597    0.4486   -5.5529 H         1 UNK         0.0770 
    107 H107       27.7274    0.6788   -3.3949 H         1 UNK         0.0814 
    108 H108       29.4098    1.1561   -3.3286 H         1 UNK         0.0814 
    109 H109       28.9905   -0.5487   -3.3643 H         1 UNK         0.0814 
    110 H110       26.3474    0.8776   -5.9043 H         1 UNK         0.2983 
    111 H111       26.3551    3.7294   -6.2426 H         1 UNK         0.0947 
    112 H112       24.0668    3.3944   -7.1184 H         1 UNK         0.0806 
    113 H113       24.2943    2.4147   -5.6797 H         1 UNK         0.0806 
    114 H114       24.3356    1.6680   -7.2799 H         1 UNK         0.0806 
    115 H115       26.5572    1.0068   -8.5600 H         1 UNK         0.3000 
    116 H116       26.8778    2.6270  -10.9202 H         1 UNK         0.0850 
    117 H117       27.4961    0.4419  -11.9562 H         1 UNK         0.0810 
    118 H118       26.0574    0.2658  -10.9638 H         1 UNK         0.0810 
    119 H119       27.6166   -0.3003  -10.3663 H         1 UNK         0.0810 
    120 H120       29.0141    1.9512   -8.3524 H         1 UNK         0.3040 
    121 H121       31.1401    2.2418   -7.8779 H         1 UNK         0.0766 
    122 H122       32.4145    4.0400   -8.9896 H         1 UNK         0.0812 
    123 H123       30.7553    4.5566   -8.7353 H         1 UNK         0.0812 
    124 H124       31.2920    4.0605  -10.3404 H         1 UNK         0.0812 
    125 H125       30.6818   -0.1490   -8.9302 H         1 UNK         0.3205 
    126 H126       32.2159   -0.9538  -11.1664 H         1 UNK         0.0754 
    127 H127       31.8643   -3.2423  -10.2451 H         1 UNK         0.0769 
    128 H128       30.3829   -2.3046  -10.1278 H         1 UNK         0.0769 
    129 H129       31.3803   -2.5655   -8.6963 H         1 UNK         0.0769 
    130 H130       33.2663   -0.1632   -7.9702 H         1 UNK         0.2981 
    131 H131       35.8337   -1.4967   -8.0321 H         1 UNK         0.0541 
    132 H132       34.7275    1.3283   -9.7760 H         1 UNK         0.3459 
    133 H133       36.3293    1.9663  -10.0567 H         1 UNK         0.3459 
    134 H134       34.8204    0.7643   -6.2269 H         1 UNK         0.0612 
    135 H135       36.3193   -0.1000   -6.0080 H         1 UNK         0.0612 
    136 H136       32.9149    0.1694   -4.6438 H         1 UNK         0.0624 
    137 H137       32.3816   -0.5336   -6.1543 H         1 UNK         0.0624 
@<TRIPOS>BOND
     1    1    2 1    
     2    1   72 1    
     3    1   73 1    
     4    1   74 1    
     5    2    3 2    
     6    2    4 am   BACKBONE|DICT|INTERRES
     7    4    5 1    
     8    4   75 1    
     9    5    6 1    
    10    5   35 1    
    11    5   76 1    
    12    6    7 1    
    13    6   77 1    
    14    6   78 1    
    15    7    8 1    
    16    8    9 1    
    17    8   79 1    
    18    8   80 1    
    19    9   10 ar   
    20    9   14 ar   
    21   10   11 ar   
    22   10   81 1    
    23   11   12 ar   
    24   11   71 1    
    25   12   13 ar   
    26   12   82 1    
    27   13   14 ar   
    28   13   15 1    
    29   14   83 1    
    30   15   16 1    
    31   15   84 1    
    32   15   85 1    
    33   16   17 1    
    34   17   18 1    
    35   17   86 1    
    36   17   87 1    
    37   18   19 1    
    38   18   37 1    
    39   18   88 1    
    40   19   20 am   BACKBONE|DICT|INTERRES
    41   19   89 1    
    42   20   21 2    
    43   20   22 1    
    44   22   23 1    
    45   22   24 1    
    46   22   90 1    
    47   23   91 1    
    48   23   92 1    
    49   23   93 1    
    50   24   25 am   BACKBONE|DICT|INTERRES
    51   24   94 1    
    52   25   26 2    
    53   25   27 1    
    54   27   28 1    
    55   27   29 1    
    56   27   95 1    
    57   28   96 1    
    58   28   97 1    
    59   28   98 1    
    60   29   30 am   BACKBONE|DICT|INTERRES
    61   29   99 1    
    62   30   31 2    
    63   30   32 1    
    64   32   33 1    
    65   32   34 1    
    66   32  100 1    
    67   33  101 1    
    68   33  102 1    
    69   33  103 1    
    70   34   35 am   BACKBONE|DICT|INTERRES
    71   34  104 1    
    72   35   36 2    
    73   37   38 2    
    74   37   39 am   BACKBONE|DICT|INTERRES
    75   39   40 1    
    76   39  105 1    
    77   40   41 1    
    78   40   42 1    
    79   40  106 1    
    80   41  107 1    
    81   41  108 1    
    82   41  109 1    
    83   42   43 2    
    84   42   44 am   BACKBONE|DICT|INTERRES
    85   44   45 1    
    86   44  110 1    
    87   45   46 1    
    88   45   47 1    
    89   45  111 1    
    90   46  112 1    
    91   46  113 1    
    92   46  114 1    
    93   47   48 2    
    94   47   49 am   BACKBONE|DICT|INTERRES
    95   49   50 1    
    96   49  115 1    
    97   50   51 1    
    98   50   52 1    
    99   50  116 1    
   100   51  117 1    
   101   51  118 1    
   102   51  119 1    
   103   52   53 2    
   104   52   54 am   BACKBONE|DICT|INTERRES
   105   54   55 1    
   106   54  120 1    
   107   55   56 1    
   108   55   57 1    
   109   55  121 1    
   110   56  122 1    
   111   56  123 1    
   112   56  124 1    
   113   57   58 2    
   114   57   59 am   BACKBONE|DICT|INTERRES
   115   59   60 1    
   116   59  125 1    
   117   60   61 1    
   118   60   62 1    
   119   60  126 1    
   120   61  127 1    
   121   61  128 1    
   122   61  129 1    
   123   62   63 2    
   124   62   64 am   BACKBONE|DICT|INTERRES
   125   64   65 1    
   126   64  130 1    
   127   65   66 1    
   128   65   69 1    
   129   65  131 1    
   130   66   67 am   BACKBONE|DICT|INTERRES
   131   66   68 2    
   132   67  132 1    
   133   67  133 1    
   134   69   70 1    
   135   69  134 1    
   136   69  135 1    
   137   70   71 1    
   138   71  136 1    
   139   71  137 1    
@<TRIPOS>SUBSTRUCTURE
     1 UNK         1 GROUP             0       ****    0 ROOT    
