@<TRIPOS>MOLECULE
3R137
137   139    1
SMALL
USER_CHARGES


@<TRIPOS>ATOM
      1 CA         29.0452    0.6777    2.9968 C.3       0 UNK        -0.2020 
      2 C          28.6924    0.4558    1.5336 C.2       0 UNK         0.4855 
      3 O          27.8502    1.1721    0.9908 O.2       0 UNK        -0.5197 
      4 N          29.3364   -0.5239    0.8885 N.am      1 UNK        -0.4892 
      5 CA         29.0747   -0.9349   -0.4943 C.3       1 UNK         0.0835 
      6 C6         30.2653   -1.7228   -1.0983 C.3       12 UNK        -0.0855 
      7 S7         30.8881   -3.0975   -0.0612 S.3       12 UNK        -0.2931 
      8 C8         30.1226   -4.5622   -0.8335 C.3       12 UNK         0.0378 
      9 C9         30.4781   -4.7089   -2.3080 C.ar      12 UNK        -0.0802 
     10 C10        31.8137   -4.7907   -2.7129 C.ar      12 UNK        -0.0944 
     11 C11        32.1392   -4.8953   -4.0678 C.ar      12 UNK        -0.0787 
     12 C12        31.1157   -4.9559   -5.0180 C.ar      12 UNK        -0.0862 
     13 C13        29.7740   -4.8783   -4.6282 C.ar      12 UNK        -0.0733 
     14 C14        29.4652   -4.7569   -3.2703 C.ar      12 UNK        -0.0832 
     15 C15        28.6525   -4.9597   -5.6594 C.3       12 UNK         0.0240 
     16 S16        28.9212   -3.8862   -7.1065 S.3       12 UNK        -0.2522 
     17 C17        28.7429   -2.2091   -6.4109 C.3       12 UNK        -0.0967 
     18 CA         27.7510   -1.3832   -7.2643 C.3       5 UNK         0.0660 
     19 N          26.3545   -1.7744   -7.0580 N.am      5 UNK        -0.4015 
     20 C          25.3616   -1.4741   -7.9067 C.2       4 UNK         0.4946 
     21 O          25.5185   -0.8423   -8.9520 O.2       4 UNK        -0.5353 
     22 CA         23.9493   -1.9240   -7.5005 C.3       4 UNK         0.0277 
     23 CB         23.7749   -3.4374   -7.7089 C.3       4 UNK        -0.1981 
     24 N          23.6201   -1.5706   -6.1173 N.am      4 UNK        -0.4209 
     25 C          23.5134   -0.3126   -5.6661 C.2       3 UNK         0.4942 
     26 O          23.6682    0.6848   -6.3691 O.2       3 UNK        -0.5208 
     27 CA         23.2177   -0.1302   -4.1685 C.3       3 UNK         0.0250 
     28 CB         21.7062   -0.2226   -3.9043 C.3       3 UNK        -0.1990 
     29 N          23.9302   -1.0580   -3.2816 N.am      3 UNK        -0.4232 
     30 C          25.2589   -1.2252   -3.2414 C.2       2 UNK         0.4993 
     31 O          26.0494   -0.7183   -4.0435 O.2       2 UNK        -0.5286 
     32 CA         25.8055   -2.1246   -2.1309 C.3       2 UNK         0.0209 
     33 CB         25.8364   -3.5940   -2.5804 C.3       2 UNK        -0.1931 
     34 N          27.1529   -1.6545   -1.8244 N.am      2 UNK        -0.4546 
     35 C          27.7370   -1.6966   -0.6231 C.2       1 UNK         0.5154 
     36 O          27.2610   -2.2958    0.3457 O.2       1 UNK        -0.5181 
     37 C          27.9520    0.1313   -7.0869 C.2       5 UNK         0.5014 
     38 O          28.7285    0.7136   -7.8433 O.2       5 UNK        -0.5248 
     39 N          27.2261    0.7552   -6.1476 N.am      6 UNK        -0.4434 
     40 CA         27.1970    2.2073   -5.9599 C.3       6 UNK         0.0363 
     41 CB         26.3988    2.5559   -4.6941 C.3       6 UNK        -0.1936 
     42 C          26.6381    2.9502   -7.1863 C.2       6 UNK         0.5081 
     43 O          27.2400    3.9337   -7.6168 O.2       6 UNK        -0.5248 
     44 N          25.5289    2.4498   -7.7513 N.am      7 UNK        -0.4718 
     45 CA         24.9112    2.9738   -8.9739 C.3       7 UNK         0.0273 
     46 CB         23.5327    2.3260   -9.1786 C.3       7 UNK        -0.1935 
     47 C          25.7894    2.7819  -10.2217 C.2       7 UNK         0.5018 
     48 O          25.8661    3.6900  -11.0501 O.2       7 UNK        -0.5186 
     49 N          26.4496    1.6198  -10.3255 N.am      8 UNK        -0.4240 
     50 CA         27.3945    1.2956  -11.3990 C.3       8 UNK         0.0235 
     51 CB         27.6306   -0.2239  -11.4154 C.3       8 UNK        -0.2000 
     52 C          28.7423    2.0350  -11.2915 C.2       8 UNK         0.4941 
     53 O          29.4789    2.0638  -12.2782 O.2       8 UNK        -0.5273 
     54 N          29.0519    2.5813  -10.1049 N.am      9 UNK        -0.4262 
     55 CA         30.3380    3.1563   -9.6904 C.3       9 UNK         0.0264 
     56 CB         30.6686    4.4331  -10.4925 C.3       9 UNK        -0.1955 
     57 C          31.4684    2.1065   -9.7110 C.2       9 UNK         0.5031 
     58 O          32.5778    2.3931  -10.1671 O.2       9 UNK        -0.5390 
     59 N          31.1483    0.9012   -9.2276 N.am      10 UNK        -0.4204 
     60 CA         32.0413   -0.2501   -9.1350 C.3       10 UNK         0.0237 
     61 CB         31.2549   -1.5064   -9.5481 C.3       10 UNK        -0.1985 
     62 C          32.5771   -0.3959   -7.7033 C.2       10 UNK         0.4970 
     63 O          31.9907    0.1492   -6.7645 O.2       10 UNK        -0.4914 
     64 N          33.6653   -1.1643   -7.5674 N.am      11 UNK        -0.4285 
     65 CA         34.3766   -1.4302   -6.3067 C.3       11 UNK         0.1007 
     66 C          35.0909   -0.1680   -5.7287 C.2       11 UNK         0.5703 
     67 N          35.4651   -0.1737   -4.4565 N.am      11 UNK        -0.7361 
     68 O          35.3589    0.8013   -6.4373 O.2       11 UNK        -0.4986 
     69 C69        33.4819   -2.1936   -5.2824 C.3       12 UNK        -0.0947 
     70 S70        34.4275   -3.3307   -4.2098 S.3       12 UNK        -0.2240 
     71 C71        33.5970   -4.9259   -4.5059 C.3       12 UNK         0.0194 
     72 H72        28.1610    0.5455    3.6197 H         1 UNK         0.0906 
     73 H73        29.8099   -0.0180    3.3421 H         1 UNK         0.0906 
     74 H74        29.4177    1.6911    3.1439 H         1 UNK         0.0906 
     75 H75        29.9932   -1.1098    1.3857 H         1 UNK         0.3140 
     76 H76        28.9660   -0.0198   -1.0819 H         1 UNK         0.1085 
     77 H77        30.0298   -2.0745   -2.1038 H         1 UNK         0.0836 
     78 H78        31.1015   -1.0356   -1.2363 H         1 UNK         0.0836 
     79 H79        30.4541   -5.4543   -0.3006 H         1 UNK         0.0731 
     80 H80        29.0417   -4.5072   -0.6948 H         1 UNK         0.0731 
     81 H81        32.6025   -4.7433   -1.9743 H         1 UNK         0.1312 
     82 H82        31.3632   -5.0499   -6.0666 H         1 UNK         0.1406 
     83 H83        28.4330   -4.7068   -2.9576 H         1 UNK         0.1631 
     84 H84        28.5779   -5.9917   -6.0043 H         1 UNK         0.0717 
     85 H85        27.6872   -4.7151   -5.2159 H         1 UNK         0.0717 
     86 H86        28.4260   -2.2505   -5.3671 H         1 UNK         0.0934 
     87 H87        29.7368   -1.7554   -6.4090 H         1 UNK         0.0934 
     88 H88        27.9820   -1.5813   -8.3133 H         1 UNK         0.0739 
     89 H89        26.1360   -2.2494   -6.1955 H         1 UNK         0.3093 
     90 H90        23.2413   -1.4080   -8.1530 H         1 UNK         0.0818 
     91 H91        22.7476   -3.7478   -7.5171 H         1 UNK         0.0819 
     92 H92        24.0085   -3.7175   -8.7372 H         1 UNK         0.0819 
     93 H93        24.4285   -4.0185   -7.0571 H         1 UNK         0.0819 
     94 H94        23.4748   -2.3284   -5.4664 H         1 UNK         0.3041 
     95 H95        23.5424    0.8767   -3.8995 H         1 UNK         0.0784 
     96 H96        21.1555    0.4714   -4.5413 H         1 UNK         0.0793 
     97 H97        21.3201   -1.2232   -4.1028 H         1 UNK         0.0793 
     98 H98        21.4666    0.0318   -2.8716 H         1 UNK         0.0793 
     99 H99        23.3639   -1.5383   -2.5966 H         1 UNK         0.3024 
    100 H100       25.1730   -2.0199   -1.2459 H         1 UNK         0.1171 
    101 H101       26.2920   -4.2321   -1.8230 H         1 UNK         0.0786 
    102 H102       24.8275   -3.9703   -2.7539 H         1 UNK         0.0786 
    103 H103       26.3917   -3.7151   -3.5096 H         1 UNK         0.0786 
    104 H104       27.5673   -1.1136   -2.5743 H         1 UNK         0.2977 
    105 H105       26.6517    0.1999   -5.5154 H         1 UNK         0.3127 
    106 H106       28.2269    2.5394   -5.8126 H         1 UNK         0.0770 
    107 H107       25.3574    2.2457   -4.7762 H         1 UNK         0.0814 
    108 H108       26.4055    3.6315   -4.5135 H         1 UNK         0.0814 
    109 H109       26.8225    2.0752   -3.8122 H         1 UNK         0.0814 
    110 H110       25.0575    1.6665   -7.3052 H         1 UNK         0.2983 
    111 H111       24.7650    4.0477   -8.8388 H         1 UNK         0.0947 
    112 H112       23.0518    2.7036  -10.0819 H         1 UNK         0.0806 
    113 H113       22.8669    2.5412   -8.3427 H         1 UNK         0.0806 
    114 H114       23.6068    1.2419   -9.2746 H         1 UNK         0.0806 
    115 H115       26.2683    0.8924   -9.6390 H         1 UNK         0.3000 
    116 H116       26.9408    1.5815  -12.3504 H         1 UNK         0.0850 
    117 H117       26.6961   -0.7708  -11.5420 H         1 UNK         0.0810 
    118 H118       28.0975   -0.5661  -10.4916 H         1 UNK         0.0810 
    119 H119       28.2879   -0.5101  -12.2375 H         1 UNK         0.0810 
    120 H120       28.3825    2.4565   -9.3554 H         1 UNK         0.3040 
    121 H121       30.2133    3.4469   -8.6460 H         1 UNK         0.0766 
    122 H122       29.8495    5.1508  -10.4488 H         1 UNK         0.0812 
    123 H123       30.8692    4.2148  -11.5416 H         1 UNK         0.0812 
    124 H124       31.5541    4.9263  -10.0899 H         1 UNK         0.0812 
    125 H125       30.2417    0.7993   -8.7690 H         1 UNK         0.3205 
    126 H126       32.8867   -0.1236   -9.8147 H         1 UNK         0.0754 
    127 H127       30.4092   -1.6882   -8.8852 H         1 UNK         0.0769 
    128 H128       31.8852   -2.3961   -9.5229 H         1 UNK         0.0769 
    129 H129       30.8672   -1.4134  -10.5629 H         1 UNK         0.0769 
    130 H130       34.0918   -1.5538   -8.3955 H         1 UNK         0.2981 
    131 H131       35.1882   -2.0955   -6.6027 H         1 UNK         0.0541 
    132 H132       35.9451    0.6266   -4.0760 H         1 UNK         0.3459 
    133 H133       35.2736   -0.9772   -3.8766 H         1 UNK         0.3459 
    134 H134       32.7347   -2.7782   -5.8194 H         1 UNK         0.0612 
    135 H135       32.9125   -1.5025   -4.6584 H         1 UNK         0.0612 
    136 H136       34.1222   -5.7059   -3.9531 H         1 UNK         0.0624 
    137 H137       33.6846   -5.1835   -5.5626 H         1 UNK         0.0624 
@<TRIPOS>BOND
     1    1    2 1    
     2    1   72 1    
     3    1   73 1    
     4    1   74 1    
     5    2    3 2    
     6    2    4 am   BACKBONE|DICT|INTERRES
     7    4    5 1    
     8    4   75 1    
     9    5    6 1    
    10    5   35 1    
    11    5   76 1    
    12    6    7 1    
    13    6   77 1    
    14    6   78 1    
    15    7    8 1    
    16    8    9 1    
    17    8   79 1    
    18    8   80 1    
    19    9   10 ar   
    20    9   14 ar   
    21   10   11 ar   
    22   10   81 1    
    23   11   12 ar   
    24   11   71 1    
    25   12   13 ar   
    26   12   82 1    
    27   13   14 ar   
    28   13   15 1    
    29   14   83 1    
    30   15   16 1    
    31   15   84 1    
    32   15   85 1    
    33   16   17 1    
    34   17   18 1    
    35   17   86 1    
    36   17   87 1    
    37   18   19 1    
    38   18   37 1    
    39   18   88 1    
    40   19   20 am   BACKBONE|DICT|INTERRES
    41   19   89 1    
    42   20   21 2    
    43   20   22 1    
    44   22   23 1    
    45   22   24 1    
    46   22   90 1    
    47   23   91 1    
    48   23   92 1    
    49   23   93 1    
    50   24   25 am   BACKBONE|DICT|INTERRES
    51   24   94 1    
    52   25   26 2    
    53   25   27 1    
    54   27   28 1    
    55   27   29 1    
    56   27   95 1    
    57   28   96 1    
    58   28   97 1    
    59   28   98 1    
    60   29   30 am   BACKBONE|DICT|INTERRES
    61   29   99 1    
    62   30   31 2    
    63   30   32 1    
    64   32   33 1    
    65   32   34 1    
    66   32  100 1    
    67   33  101 1    
    68   33  102 1    
    69   33  103 1    
    70   34   35 am   BACKBONE|DICT|INTERRES
    71   34  104 1    
    72   35   36 2    
    73   37   38 2    
    74   37   39 am   BACKBONE|DICT|INTERRES
    75   39   40 1    
    76   39  105 1    
    77   40   41 1    
    78   40   42 1    
    79   40  106 1    
    80   41  107 1    
    81   41  108 1    
    82   41  109 1    
    83   42   43 2    
    84   42   44 am   BACKBONE|DICT|INTERRES
    85   44   45 1    
    86   44  110 1    
    87   45   46 1    
    88   45   47 1    
    89   45  111 1    
    90   46  112 1    
    91   46  113 1    
    92   46  114 1    
    93   47   48 2    
    94   47   49 am   BACKBONE|DICT|INTERRES
    95   49   50 1    
    96   49  115 1    
    97   50   51 1    
    98   50   52 1    
    99   50  116 1    
   100   51  117 1    
   101   51  118 1    
   102   51  119 1    
   103   52   53 2    
   104   52   54 am   BACKBONE|DICT|INTERRES
   105   54   55 1    
   106   54  120 1    
   107   55   56 1    
   108   55   57 1    
   109   55  121 1    
   110   56  122 1    
   111   56  123 1    
   112   56  124 1    
   113   57   58 2    
   114   57   59 am   BACKBONE|DICT|INTERRES
   115   59   60 1    
   116   59  125 1    
   117   60   61 1    
   118   60   62 1    
   119   60  126 1    
   120   61  127 1    
   121   61  128 1    
   122   61  129 1    
   123   62   63 2    
   124   62   64 am   BACKBONE|DICT|INTERRES
   125   64   65 1    
   126   64  130 1    
   127   65   66 1    
   128   65   69 1    
   129   65  131 1    
   130   66   67 am   BACKBONE|DICT|INTERRES
   131   66   68 2    
   132   67  132 1    
   133   67  133 1    
   134   69   70 1    
   135   69  134 1    
   136   69  135 1    
   137   70   71 1    
   138   71  136 1    
   139   71  137 1    
@<TRIPOS>SUBSTRUCTURE
     1 UNK         1 GROUP             0       ****    0 ROOT    
