@<TRIPOS>MOLECULE
3R137
137   139    1
SMALL
USER_CHARGES


@<TRIPOS>ATOM
      1 CA         29.8977   -6.0233   -4.3598 C.3       0 UNK        -0.2020 
      2 C          28.8314   -6.0473   -3.2745 C.2       0 UNK         0.4855 
      3 O          28.4786   -7.1221   -2.7886 O.2       0 UNK        -0.5197 
      4 N          28.3122   -4.8767   -2.8923 N.am      1 UNK        -0.4892 
      5 CA         27.2516   -4.7019   -1.9039 C.3       1 UNK         0.0835 
      6 C6         27.7940   -4.7616   -0.4461 C.3       12 UNK        -0.0855 
      7 S7         28.5977   -3.2520    0.2089 S.3       12 UNK        -0.2931 
      8 C8         30.2810   -3.3287   -0.4939 C.3       12 UNK         0.0378 
      9 C9         30.4973   -2.2795   -1.5804 C.ar      12 UNK        -0.0802 
     10 C10        30.9473   -2.6511   -2.8527 C.ar      12 UNK        -0.0944 
     11 C11        31.1506   -1.6858   -3.8454 C.ar      12 UNK        -0.0787 
     12 C12        30.8968   -0.3428   -3.5584 C.ar      12 UNK        -0.0862 
     13 C13        30.4626    0.0466   -2.2882 C.ar      12 UNK        -0.0733 
     14 C14        30.2791   -0.9254   -1.3007 C.ar      12 UNK        -0.0832 
     15 C15        30.2044    1.5204   -1.9912 C.3       12 UNK         0.0240 
     16 S16        28.4935    1.8908   -1.4592 S.3       12 UNK        -0.2522 
     17 C17        27.4472    0.7859   -2.4677 C.3       12 UNK        -0.0967 
     18 CA         27.6412    0.9217   -4.0001 C.3       5 UNK         0.0660 
     19 N          27.4053   -0.3550   -4.6752 N.am      5 UNK        -0.4015 
     20 C          27.6807   -0.6234   -5.9572 C.2       4 UNK         0.4946 
     21 O          28.2303    0.1670   -6.7201 O.2       4 UNK        -0.5353 
     22 CA         27.2233   -1.9894   -6.4929 C.3       4 UNK         0.0277 
     23 CB         28.2687   -3.0767   -6.1997 C.3       4 UNK        -0.1981 
     24 N          25.9297   -2.3834   -5.9340 N.am      4 UNK        -0.4209 
     25 C          24.7659   -1.7923   -6.2394 C.2       3 UNK         0.4942 
     26 O          24.6534   -0.8903   -7.0698 O.2       3 UNK        -0.5208 
     27 CA         23.5298   -2.2589   -5.4515 C.3       3 UNK         0.0250 
     28 CB         22.9337   -3.5290   -6.0786 C.3       3 UNK        -0.1990 
     29 N          23.8160   -2.4956   -4.0322 N.am      3 UNK        -0.4232 
     30 C          24.1644   -1.5337   -3.1657 C.2       2 UNK         0.4993 
     31 O          24.2568   -0.3441   -3.4672 O.2       2 UNK        -0.5286 
     32 CA         24.5190   -1.9736   -1.7345 C.3       2 UNK         0.0209 
     33 CB         23.2471   -2.1146   -0.8832 C.3       2 UNK        -0.1931 
     34 N          25.3124   -3.2079   -1.6445 N.am      2 UNK        -0.4546 
     35 C          26.4925   -3.4072   -2.2488 C.2       1 UNK         0.5154 
     36 O          26.9860   -2.6131   -3.0546 O.2       1 UNK        -0.5181 
     37 C          26.7996    2.0649   -4.5985 C.2       5 UNK         0.5014 
     38 O          27.3287    3.1570   -4.8095 O.2       5 UNK        -0.5248 
     39 N          25.5224    1.7850   -4.8985 N.am      6 UNK        -0.4434 
     40 CA         24.6114    2.6967   -5.5940 C.3       6 UNK         0.0363 
     41 CB         23.1855    2.1238   -5.5658 C.3       6 UNK        -0.1936 
     42 C          25.0516    2.9963   -7.0382 C.2       6 UNK         0.5081 
     43 O          24.9429    4.1431   -7.4735 O.2       6 UNK        -0.5248 
     44 N          25.5505    1.9741   -7.7489 N.am      7 UNK        -0.4718 
     45 CA         26.1201    2.1062   -9.0933 C.3       7 UNK         0.0273 
     46 CB         26.2622    0.7136   -9.7284 C.3       7 UNK        -0.1935 
     47 C          27.4727    2.8406   -9.1027 C.2       7 UNK         0.5018 
     48 O          27.7484    3.5841  -10.0455 O.2       7 UNK        -0.5186 
     49 N          28.2962    2.5965   -8.0726 N.am      8 UNK        -0.4240 
     50 CA         29.6535    3.0952   -7.8136 C.3       8 UNK         0.0235 
     51 CB         29.6990    4.6324   -7.7254 C.3       8 UNK        -0.2000 
     52 C          30.6984    2.5462   -8.7970 C.2       8 UNK         0.4941 
     53 O          31.6786    1.9347   -8.3684 O.2       8 UNK        -0.5273 
     54 N          30.4442    2.7097  -10.1018 N.am      9 UNK        -0.4262 
     55 CA         31.2668    2.2272  -11.2182 C.3       9 UNK         0.0264 
     56 CB         30.6830    2.7707  -12.5326 C.3       9 UNK        -0.1955 
     57 C          31.4188    0.6941  -11.2877 C.2       9 UNK         0.5031 
     58 O          32.2849    0.2078  -12.0157 O.2       9 UNK        -0.5390 
     59 N          30.5933   -0.0356  -10.5248 N.am      10 UNK        -0.4204 
     60 CA         30.6542   -1.4834  -10.3353 C.3       10 UNK         0.0237 
     61 CB         29.4103   -1.9329   -9.5564 C.3       10 UNK        -0.1985 
     62 C          31.9384   -1.9708   -9.6364 C.2       10 UNK         0.4970 
     63 O          32.3217   -3.1195   -9.8627 O.2       10 UNK        -0.4914 
     64 N          32.5893   -1.1161   -8.8318 N.am      11 UNK        -0.4285 
     65 CA         33.9112   -1.4012   -8.2496 C.3       11 UNK         0.1007 
     66 C          34.8303   -0.1608   -8.0602 C.2       11 UNK         0.5703 
     67 N          34.3539    1.0717   -8.1927 N.am      11 UNK        -0.7361 
     68 O          36.0244   -0.3222   -7.8183 O.2       11 UNK        -0.4986 
     69 C69        33.8505   -2.3438   -7.0114 C.3       12 UNK        -0.0947 
     70 S70        33.3883   -1.5430   -5.4373 S.3       12 UNK        -0.2240 
     71 C71        31.6647   -2.0764   -5.2238 C.3       12 UNK         0.0194 
     72 H72        30.8546   -6.3486   -3.9525 H         1 UNK         0.0906 
     73 H73        29.6243   -6.7009   -5.1683 H         1 UNK         0.0906 
     74 H74        30.0286   -5.0304   -4.7861 H         1 UNK         0.0906 
     75 H75        28.5887   -4.0030   -3.3231 H         1 UNK         0.3140 
     76 H76        26.5388   -5.5190   -2.0379 H         1 UNK         0.1085 
     77 H77        28.4737   -5.6067   -0.3269 H         1 UNK         0.0836 
     78 H78        26.9617   -4.9806    0.2247 H         1 UNK         0.0836 
     79 H79        30.4826   -4.3322   -0.8710 H         1 UNK         0.0731 
     80 H80        31.0011   -3.1531    0.3063 H         1 UNK         0.0731 
     81 H81        31.1553   -3.6900   -3.0650 H         1 UNK         0.1312 
     82 H82        31.0551    0.4005   -4.3281 H         1 UNK         0.1406 
     83 H83        29.9436   -0.6281   -0.3162 H         1 UNK         0.1631 
     84 H84        30.4318    2.1339   -2.8644 H         1 UNK         0.0717 
     85 H85        30.8906    1.8481   -1.2093 H         1 UNK         0.0717 
     86 H86        27.6747   -0.2308   -2.1450 H         1 UNK         0.0934 
     87 H87        26.4039    0.9397   -2.1855 H         1 UNK         0.0934 
     88 H88        28.6790    1.1751   -4.2111 H         1 UNK         0.0739 
     89 H89        27.0341   -1.1083   -4.1004 H         1 UNK         0.3093 
     90 H90        27.1076   -1.9079   -7.5754 H         1 UNK         0.0818 
     91 H91        27.9161   -4.0638   -6.4991 H         1 UNK         0.0819 
     92 H92        29.1921   -2.8886   -6.7451 H         1 UNK         0.0819 
     93 H93        28.5243   -3.1129   -5.1422 H         1 UNK         0.0819 
     94 H94        25.9423   -3.0744   -5.1979 H         1 UNK         0.3041 
     95 H95        22.7822   -1.4650   -5.5142 H         1 UNK         0.0784 
     96 H96        22.6975   -3.3688   -7.1317 H         1 UNK         0.0793 
     97 H97        23.6233   -4.3723   -6.0241 H         1 UNK         0.0793 
     98 H98        22.0076   -3.8193   -5.5820 H         1 UNK         0.0793 
     99 H99        23.7635   -3.4478   -3.7001 H         1 UNK         0.3024 
    100 H100       25.1260   -1.1750   -1.3024 H         1 UNK         0.1171 
    101 H101       23.4885   -2.2959    0.1643 H         1 UNK         0.0786 
    102 H102       22.6487   -1.2029   -0.9211 H         1 UNK         0.0786 
    103 H103       22.6157   -2.9336   -1.2298 H         1 UNK         0.0786 
    104 H104       24.9745   -3.9094   -1.0010 H         1 UNK         0.2977 
    105 H105       25.1368    0.8896   -4.6055 H         1 UNK         0.3127 
    106 H106       24.6085    3.6418   -5.0468 H         1 UNK         0.0770 
    107 H107       23.1247    1.1650   -6.0815 H         1 UNK         0.0814 
    108 H108       22.4830    2.8017   -6.0522 H         1 UNK         0.0814 
    109 H109       22.8384    1.9749   -4.5431 H         1 UNK         0.0814 
    110 H110       25.5396    1.0454   -7.3411 H         1 UNK         0.2983 
    111 H111       25.4251    2.6893   -9.7017 H         1 UNK         0.0947 
    112 H112       26.6631    0.7831  -10.7406 H         1 UNK         0.0806 
    113 H113       25.2981    0.2089   -9.7946 H         1 UNK         0.0806 
    114 H114       26.9324    0.0744   -9.1537 H         1 UNK         0.0806 
    115 H115       28.0046    1.8668   -7.4246 H         1 UNK         0.3000 
    116 H116       29.9183    2.7054   -6.8290 H         1 UNK         0.0850 
    117 H117       30.6944    4.9747   -7.4395 H         1 UNK         0.0810 
    118 H118       29.0005    5.0018   -6.9741 H         1 UNK         0.0810 
    119 H119       29.4529    5.1094   -8.6743 H         1 UNK         0.0810 
    120 H120       29.5758    3.1843  -10.3400 H         1 UNK         0.3040 
    121 H121       32.2692    2.6402  -11.0887 H         1 UNK         0.0766 
    122 H122       30.6578    3.8606  -12.5352 H         1 UNK         0.0812 
    123 H123       29.6670    2.4110  -12.7007 H         1 UNK         0.0812 
    124 H124       31.2853    2.4609  -13.3879 H         1 UNK         0.0812 
    125 H125       29.9200    0.4646   -9.9640 H         1 UNK         0.3205 
    126 H126       30.6275   -1.9486  -11.3229 H         1 UNK         0.0754 
    127 H127       29.4286   -3.0072   -9.3669 H         1 UNK         0.0769 
    128 H128       28.4957   -1.7183  -10.1093 H         1 UNK         0.0769 
    129 H129       29.3488   -1.4274   -8.5934 H         1 UNK         0.0769 
    130 H130       32.2230   -0.1845   -8.6847 H         1 UNK         0.2981 
    131 H131       34.4483   -1.9624   -9.0172 H         1 UNK         0.0541 
    132 H132       34.9944    1.8402   -8.0768 H         1 UNK         0.3459 
    133 H133       33.3666    1.2752   -8.3207 H         1 UNK         0.3459 
    134 H134       34.8338   -2.7911   -6.8576 H         1 UNK         0.0612 
    135 H135       33.1840   -3.1855   -7.2029 H         1 UNK         0.0612 
    136 H136       31.0508   -1.6079   -5.9945 H         1 UNK         0.0624 
    137 H137       31.5943   -3.1549   -5.3699 H         1 UNK         0.0624 
@<TRIPOS>BOND
     1    1    2 1    
     2    1   72 1    
     3    1   73 1    
     4    1   74 1    
     5    2    3 2    
     6    2    4 am   BACKBONE|DICT|INTERRES
     7    4    5 1    
     8    4   75 1    
     9    5    6 1    
    10    5   35 1    
    11    5   76 1    
    12    6    7 1    
    13    6   77 1    
    14    6   78 1    
    15    7    8 1    
    16    8    9 1    
    17    8   79 1    
    18    8   80 1    
    19    9   10 ar   
    20    9   14 ar   
    21   10   11 ar   
    22   10   81 1    
    23   11   12 ar   
    24   11   71 1    
    25   12   13 ar   
    26   12   82 1    
    27   13   14 ar   
    28   13   15 1    
    29   14   83 1    
    30   15   16 1    
    31   15   84 1    
    32   15   85 1    
    33   16   17 1    
    34   17   18 1    
    35   17   86 1    
    36   17   87 1    
    37   18   19 1    
    38   18   37 1    
    39   18   88 1    
    40   19   20 am   BACKBONE|DICT|INTERRES
    41   19   89 1    
    42   20   21 2    
    43   20   22 1    
    44   22   23 1    
    45   22   24 1    
    46   22   90 1    
    47   23   91 1    
    48   23   92 1    
    49   23   93 1    
    50   24   25 am   BACKBONE|DICT|INTERRES
    51   24   94 1    
    52   25   26 2    
    53   25   27 1    
    54   27   28 1    
    55   27   29 1    
    56   27   95 1    
    57   28   96 1    
    58   28   97 1    
    59   28   98 1    
    60   29   30 am   BACKBONE|DICT|INTERRES
    61   29   99 1    
    62   30   31 2    
    63   30   32 1    
    64   32   33 1    
    65   32   34 1    
    66   32  100 1    
    67   33  101 1    
    68   33  102 1    
    69   33  103 1    
    70   34   35 am   BACKBONE|DICT|INTERRES
    71   34  104 1    
    72   35   36 2    
    73   37   38 2    
    74   37   39 am   BACKBONE|DICT|INTERRES
    75   39   40 1    
    76   39  105 1    
    77   40   41 1    
    78   40   42 1    
    79   40  106 1    
    80   41  107 1    
    81   41  108 1    
    82   41  109 1    
    83   42   43 2    
    84   42   44 am   BACKBONE|DICT|INTERRES
    85   44   45 1    
    86   44  110 1    
    87   45   46 1    
    88   45   47 1    
    89   45  111 1    
    90   46  112 1    
    91   46  113 1    
    92   46  114 1    
    93   47   48 2    
    94   47   49 am   BACKBONE|DICT|INTERRES
    95   49   50 1    
    96   49  115 1    
    97   50   51 1    
    98   50   52 1    
    99   50  116 1    
   100   51  117 1    
   101   51  118 1    
   102   51  119 1    
   103   52   53 2    
   104   52   54 am   BACKBONE|DICT|INTERRES
   105   54   55 1    
   106   54  120 1    
   107   55   56 1    
   108   55   57 1    
   109   55  121 1    
   110   56  122 1    
   111   56  123 1    
   112   56  124 1    
   113   57   58 2    
   114   57   59 am   BACKBONE|DICT|INTERRES
   115   59   60 1    
   116   59  125 1    
   117   60   61 1    
   118   60   62 1    
   119   60  126 1    
   120   61  127 1    
   121   61  128 1    
   122   61  129 1    
   123   62   63 2    
   124   62   64 am   BACKBONE|DICT|INTERRES
   125   64   65 1    
   126   64  130 1    
   127   65   66 1    
   128   65   69 1    
   129   65  131 1    
   130   66   67 am   BACKBONE|DICT|INTERRES
   131   66   68 2    
   132   67  132 1    
   133   67  133 1    
   134   69   70 1    
   135   69  134 1    
   136   69  135 1    
   137   70   71 1    
   138   71  136 1    
   139   71  137 1    
@<TRIPOS>SUBSTRUCTURE
     1 UNK         1 GROUP             0       ****    0 ROOT    
