@<TRIPOS>MOLECULE
3R137
137   139    1
SMALL
USER_CHARGES


@<TRIPOS>ATOM
      1 CA         27.1552   -7.3653   -0.4842 C.3       0 UNK        -0.2020 
      2 C          26.9491   -5.9202   -0.9083 C.2       0 UNK         0.4855 
      3 O          26.4228   -5.6742   -1.9951 O.2       0 UNK        -0.5197 
      4 N          27.3390   -4.9625   -0.0520 N.am      1 UNK        -0.4892 
      5 CA         27.2950   -3.5075   -0.2826 C.3       1 UNK         0.0835 
      6 C6         28.3979   -3.0373   -1.2690 C.3       12 UNK        -0.0855 
      7 S7         30.0608   -3.0886   -0.5221 S.3       12 UNK        -0.2931 
      8 C8         31.1133   -2.5204   -1.9099 C.3       12 UNK         0.0378 
      9 C9         30.8984   -1.0815   -2.3957 C.ar      12 UNK        -0.0802 
     10 C10        31.5264   -0.6822   -3.5818 C.ar      12 UNK        -0.0944 
     11 C11        31.3381    0.6053   -4.0943 C.ar      12 UNK        -0.0787 
     12 C12        30.5009    1.4983   -3.4242 C.ar      12 UNK        -0.0862 
     13 C13        29.8494    1.1103   -2.2530 C.ar      12 UNK        -0.0733 
     14 C14        30.0884   -0.1582   -1.7190 C.ar      12 UNK        -0.0832 
     15 C15        28.8275    2.0341   -1.6099 C.3       12 UNK         0.0240 
     16 S16        27.3524    2.2272   -2.6686 S.3       12 UNK        -0.2522 
     17 C17        26.7728    0.5023   -2.8778 C.3       12 UNK        -0.0967 
     18 CA         27.2218   -0.1635   -4.2090 C.3       5 UNK         0.0660 
     19 N          26.9196   -1.6043   -4.2457 N.am      5 UNK        -0.4015 
     20 C          27.4165   -2.4421   -5.1721 C.2       4 UNK         0.4946 
     21 O          28.2497   -2.0987   -6.0115 O.2       4 UNK        -0.5353 
     22 CA         26.9365   -3.9044   -5.2219 C.3       4 UNK         0.0277 
     23 CB         28.0849   -4.8955   -4.9537 C.3       4 UNK        -0.1981 
     24 N          25.8008   -4.2336   -4.3575 N.am      4 UNK        -0.4209 
     25 C          24.5201   -4.1393   -4.7444 C.2       3 UNK         0.4942 
     26 O          24.1588   -3.5961   -5.7888 O.2       3 UNK        -0.5208 
     27 CA         23.4634   -4.7993   -3.8458 C.3       3 UNK         0.0250 
     28 CB         23.4801   -6.3266   -4.0293 C.3       3 UNK        -0.1990 
     29 N          23.6853   -4.4807   -2.4378 N.am      3 UNK        -0.4232 
     30 C          22.9792   -3.5790   -1.7417 C.2       2 UNK         0.4993 
     31 O          22.0014   -2.9779   -2.1891 O.2       2 UNK        -0.5286 
     32 CA         23.4357   -3.2815   -0.2993 C.3       2 UNK         0.0209 
     33 CB         22.5678   -4.0536    0.7081 C.3       2 UNK        -0.1931 
     34 N          24.8498   -3.5715   -0.0343 N.am      2 UNK        -0.4546 
     35 C          25.8839   -3.0093   -0.6767 C.2       1 UNK         0.5154 
     36 O          25.7430   -2.1778   -1.5743 O.2       1 UNK        -0.5181 
     37 C          26.6080    0.5465   -5.4349 C.2       5 UNK         0.5014 
     38 O          25.4234    0.3502   -5.7196 O.2       5 UNK        -0.5248 
     39 N          27.4120    1.3699   -6.1167 N.am      6 UNK        -0.4434 
     40 CA         27.0381    2.1632   -7.2843 C.3       6 UNK         0.0363 
     41 CB         26.8899    1.2593   -8.5274 C.3       6 UNK        -0.1936 
     42 C          28.0780    3.2798   -7.4818 C.2       6 UNK         0.5081 
     43 O          28.8324    3.5940   -6.5576 O.2       6 UNK        -0.5248 
     44 N          28.0984    3.8734   -8.6801 N.am      7 UNK        -0.4718 
     45 CA         29.0157    4.9402   -9.0770 C.3       7 UNK         0.0273 
     46 CB         28.3732    5.7358  -10.2289 C.3       7 UNK        -0.1935 
     47 C          30.4050    4.3943   -9.4594 C.2       7 UNK         0.5018 
     48 O          30.6886    4.2409  -10.6493 O.2       7 UNK        -0.5186 
     49 N          31.2405    4.1255   -8.4454 N.am      8 UNK        -0.4240 
     50 CA         32.6783    3.8140   -8.5078 C.3       8 UNK         0.0235 
     51 CB         33.4834    5.0968   -8.8087 C.3       8 UNK        -0.2000 
     52 C          33.0392    2.6540   -9.4569 C.2       8 UNK         0.4941 
     53 O          33.0629    1.5017   -9.0292 O.2       8 UNK        -0.5273 
     54 N          33.3025    2.9632  -10.7338 N.am      9 UNK        -0.4262 
     55 CA         33.5539    1.9833  -11.7950 C.3       9 UNK         0.0264 
     56 CB         33.9944    2.7214  -13.0694 C.3       9 UNK        -0.1955 
     57 C          32.3459    1.0718  -12.0889 C.2       9 UNK         0.5031 
     58 O          32.5391   -0.0371  -12.5886 O.2       9 UNK        -0.5390 
     59 N          31.1318    1.5428  -11.7708 N.am      10 UNK        -0.4204 
     60 CA         29.8814    0.7992  -11.9248 C.3       10 UNK         0.0237 
     61 CB         28.7181    1.8029  -12.0030 C.3       10 UNK        -0.1985 
     62 C          29.6204   -0.2399  -10.8157 C.2       10 UNK         0.4970 
     63 O          28.6690   -1.0090  -10.9604 O.2       10 UNK        -0.4914 
     64 N          30.4033   -0.2324   -9.7248 N.am      11 UNK        -0.4285 
     65 CA         30.2171   -1.1208   -8.5625 C.3       11 UNK         0.1007 
     66 C          30.3546   -2.6324   -8.8888 C.2       11 UNK         0.5703 
     67 N          29.6810   -3.4767   -8.1210 N.am      11 UNK        -0.7361 
     68 O          31.0879   -3.0432   -9.7869 O.2       11 UNK        -0.4986 
     69 C69        31.1421   -0.7434   -7.3785 C.3       12 UNK        -0.0947 
     70 S70        30.8315    0.9411   -6.7742 S.3       12 UNK        -0.2240 
     71 C71        32.0020    1.0371   -5.3899 C.3       12 UNK         0.0194 
     72 H72        27.6203   -7.4410    0.4984 H         1 UNK         0.0906 
     73 H73        26.1982   -7.8851   -0.4494 H         1 UNK         0.0906 
     74 H74        27.7945   -7.8767   -1.2031 H         1 UNK         0.0906 
     75 H75        27.7547   -5.2385    0.8275 H         1 UNK         0.3140 
     76 H76        27.4900   -3.0340    0.6813 H         1 UNK         0.1085 
     77 H77        28.3914   -3.6413   -2.1719 H         1 UNK         0.0836 
     78 H78        28.2179   -2.0191   -1.6013 H         1 UNK         0.0836 
     79 H79        30.9661   -3.2040   -2.7478 H         1 UNK         0.0731 
     80 H80        32.1560   -2.6261   -1.6075 H         1 UNK         0.0731 
     81 H81        32.1556   -1.3806   -4.1168 H         1 UNK         0.1312 
     82 H82        30.3176    2.4797   -3.8415 H         1 UNK         0.1406 
     83 H83        29.5986   -0.4311   -0.7960 H         1 UNK         0.1631 
     84 H84        29.2777    3.0134   -1.4421 H         1 UNK         0.0717 
     85 H85        28.5206    1.6622   -0.6310 H         1 UNK         0.0717 
     86 H86        27.1365   -0.0714   -2.0277 H         1 UNK         0.0934 
     87 H87        25.6843    0.4890   -2.7942 H         1 UNK         0.0934 
     88 H88        28.3074   -0.0784   -4.2788 H         1 UNK         0.0739 
     89 H89        26.2500   -1.9451   -3.5647 H         1 UNK         0.3093 
     90 H90        26.6335   -4.0665   -6.2590 H         1 UNK         0.0818 
     91 H91        28.3785   -4.9232   -3.9076 H         1 UNK         0.0819 
     92 H92        27.7953   -5.9082   -5.2345 H         1 UNK         0.0819 
     93 H93        28.9745   -4.6469   -5.5330 H         1 UNK         0.0819 
     94 H94        26.0197   -4.7132   -3.4856 H         1 UNK         0.3041 
     95 H95        22.4840   -4.4380   -4.1671 H         1 UNK         0.0784 
     96 H96        23.3219   -6.5960   -5.0745 H         1 UNK         0.0793 
     97 H97        24.4300   -6.7644   -3.7190 H         1 UNK         0.0793 
     98 H98        22.6888   -6.8018   -3.4493 H         1 UNK         0.0793 
     99 H99        24.4980   -4.9028   -2.0024 H         1 UNK         0.3024 
    100 H100       23.2856   -2.2118   -0.1360 H         1 UNK         0.1171 
    101 H101       22.8082   -3.7771    1.7349 H         1 UNK         0.0786 
    102 H102       21.5088   -3.8385    0.5572 H         1 UNK         0.0786 
    103 H103       22.6983   -5.1320    0.6094 H         1 UNK         0.0786 
    104 H104       25.0492   -4.2673    0.6703 H         1 UNK         0.2977 
    105 H105       28.3594    1.5345   -5.7947 H         1 UNK         0.3127 
    106 H106       26.0812    2.6465   -7.0776 H         1 UNK         0.0770 
    107 H107       27.8531    0.8595   -8.8364 H         1 UNK         0.0814 
    108 H108       26.4694    1.8021   -9.3739 H         1 UNK         0.0814 
    109 H109       26.2276    0.4143   -8.3399 H         1 UNK         0.0814 
    110 H110       27.4527    3.5536   -9.3868 H         1 UNK         0.2983 
    111 H111       29.1481    5.6274   -8.2379 H         1 UNK         0.0947 
    112 H112       29.0294    6.5427  -10.5582 H         1 UNK         0.0806 
    113 H113       27.4323    6.1915   -9.9201 H         1 UNK         0.0806 
    114 H114       28.1720    5.1063  -11.0969 H         1 UNK         0.0806 
    115 H115       30.8453    4.1636   -7.5130 H         1 UNK         0.3000 
    116 H116       32.9599    3.4805   -7.5077 H         1 UNK         0.0850 
    117 H117       34.5511    4.8843   -8.8816 H         1 UNK         0.0810 
    118 H118       33.3582    5.8305   -8.0122 H         1 UNK         0.0810 
    119 H119       33.1760    5.5719   -9.7409 H         1 UNK         0.0810 
    120 H120       33.2105    3.9290  -11.0157 H         1 UNK         0.3040 
    121 H121       34.3744    1.3411  -11.4680 H         1 UNK         0.0766 
    122 H122       34.8977    3.3071  -12.8976 H         1 UNK         0.0812 
    123 H123       33.2186    3.3963  -13.4333 H         1 UNK         0.0812 
    124 H124       34.2155    2.0161  -13.8719 H         1 UNK         0.0812 
    125 H125       31.0617    2.4805  -11.3807 H         1 UNK         0.3205 
    126 H126       29.9191    0.2547  -12.8708 H         1 UNK         0.0754 
    127 H127       27.7707    1.2944  -12.1875 H         1 UNK         0.0769 
    128 H128       28.8636    2.5186  -12.8124 H         1 UNK         0.0769 
    129 H129       28.6111    2.3644  -11.0757 H         1 UNK         0.0769 
    130 H130       31.1841    0.4088   -9.6674 H         1 UNK         0.2981 
    131 H131       29.1880   -0.9692   -8.2328 H         1 UNK         0.0541 
    132 H132       29.1142   -3.1101   -7.3601 H         1 UNK         0.3459 
    133 H133       29.7489   -4.4681   -8.2839 H         1 UNK         0.3459 
    134 H134       32.1908   -0.8284   -7.6683 H         1 UNK         0.0612 
    135 H135       30.9913   -1.4246   -6.5388 H         1 UNK         0.0612 
    136 H136       32.3475    2.0675   -5.2960 H         1 UNK         0.0624 
    137 H137       32.8874    0.4353   -5.6004 H         1 UNK         0.0624 
@<TRIPOS>BOND
     1    1    2 1    
     2    1   72 1    
     3    1   73 1    
     4    1   74 1    
     5    2    3 2    
     6    2    4 am   BACKBONE|DICT|INTERRES
     7    4    5 1    
     8    4   75 1    
     9    5    6 1    
    10    5   35 1    
    11    5   76 1    
    12    6    7 1    
    13    6   77 1    
    14    6   78 1    
    15    7    8 1    
    16    8    9 1    
    17    8   79 1    
    18    8   80 1    
    19    9   10 ar   
    20    9   14 ar   
    21   10   11 ar   
    22   10   81 1    
    23   11   12 ar   
    24   11   71 1    
    25   12   13 ar   
    26   12   82 1    
    27   13   14 ar   
    28   13   15 1    
    29   14   83 1    
    30   15   16 1    
    31   15   84 1    
    32   15   85 1    
    33   16   17 1    
    34   17   18 1    
    35   17   86 1    
    36   17   87 1    
    37   18   19 1    
    38   18   37 1    
    39   18   88 1    
    40   19   20 am   BACKBONE|DICT|INTERRES
    41   19   89 1    
    42   20   21 2    
    43   20   22 1    
    44   22   23 1    
    45   22   24 1    
    46   22   90 1    
    47   23   91 1    
    48   23   92 1    
    49   23   93 1    
    50   24   25 am   BACKBONE|DICT|INTERRES
    51   24   94 1    
    52   25   26 2    
    53   25   27 1    
    54   27   28 1    
    55   27   29 1    
    56   27   95 1    
    57   28   96 1    
    58   28   97 1    
    59   28   98 1    
    60   29   30 am   BACKBONE|DICT|INTERRES
    61   29   99 1    
    62   30   31 2    
    63   30   32 1    
    64   32   33 1    
    65   32   34 1    
    66   32  100 1    
    67   33  101 1    
    68   33  102 1    
    69   33  103 1    
    70   34   35 am   BACKBONE|DICT|INTERRES
    71   34  104 1    
    72   35   36 2    
    73   37   38 2    
    74   37   39 am   BACKBONE|DICT|INTERRES
    75   39   40 1    
    76   39  105 1    
    77   40   41 1    
    78   40   42 1    
    79   40  106 1    
    80   41  107 1    
    81   41  108 1    
    82   41  109 1    
    83   42   43 2    
    84   42   44 am   BACKBONE|DICT|INTERRES
    85   44   45 1    
    86   44  110 1    
    87   45   46 1    
    88   45   47 1    
    89   45  111 1    
    90   46  112 1    
    91   46  113 1    
    92   46  114 1    
    93   47   48 2    
    94   47   49 am   BACKBONE|DICT|INTERRES
    95   49   50 1    
    96   49  115 1    
    97   50   51 1    
    98   50   52 1    
    99   50  116 1    
   100   51  117 1    
   101   51  118 1    
   102   51  119 1    
   103   52   53 2    
   104   52   54 am   BACKBONE|DICT|INTERRES
   105   54   55 1    
   106   54  120 1    
   107   55   56 1    
   108   55   57 1    
   109   55  121 1    
   110   56  122 1    
   111   56  123 1    
   112   56  124 1    
   113   57   58 2    
   114   57   59 am   BACKBONE|DICT|INTERRES
   115   59   60 1    
   116   59  125 1    
   117   60   61 1    
   118   60   62 1    
   119   60  126 1    
   120   61  127 1    
   121   61  128 1    
   122   61  129 1    
   123   62   63 2    
   124   62   64 am   BACKBONE|DICT|INTERRES
   125   64   65 1    
   126   64  130 1    
   127   65   66 1    
   128   65   69 1    
   129   65  131 1    
   130   66   67 am   BACKBONE|DICT|INTERRES
   131   66   68 2    
   132   67  132 1    
   133   67  133 1    
   134   69   70 1    
   135   69  134 1    
   136   69  135 1    
   137   70   71 1    
   138   71  136 1    
   139   71  137 1    
@<TRIPOS>SUBSTRUCTURE
     1 UNK         1 GROUP             0       ****    0 ROOT    
