@<TRIPOS>MOLECULE
3R137
137   139    1
SMALL
USER_CHARGES


@<TRIPOS>ATOM
      1 CA         31.3269    0.4672   -1.5422 C.3       0 UNK        -0.2020 
      2 C          30.1766   -0.4487   -1.1534 C.2       0 UNK         0.4855 
      3 O          29.5854   -0.2668   -0.0883 O.2       0 UNK        -0.5197 
      4 N          29.8662   -1.4290   -2.0117 N.am      1 UNK        -0.4892 
      5 CA         28.7761   -2.4056   -1.8689 C.3       1 UNK         0.0835 
      6 C6         28.9624   -3.4105   -0.6879 C.3       12 UNK        -0.0855 
      7 S7         30.6300   -4.1483   -0.5497 S.3       12 UNK        -0.2931 
      8 C8         30.5727   -5.5193   -1.7542 C.3       12 UNK         0.0378 
      9 C9         30.5636   -5.0212   -3.1939 C.ar      12 UNK        -0.0802 
     10 C10        31.5436   -4.1246   -3.6334 C.ar      12 UNK        -0.0944 
     11 C11        31.5044   -3.6049   -4.9286 C.ar      12 UNK        -0.0787 
     12 C12        30.4938   -4.0142   -5.8013 C.ar      12 UNK        -0.0862 
     13 C13        29.5133   -4.9185   -5.3801 C.ar      12 UNK        -0.0733 
     14 C14        29.5593   -5.4288   -4.0786 C.ar      12 UNK        -0.0832 
     15 C15        28.3658   -5.2822   -6.3146 C.3       12 UNK         0.0240 
     16 S16        26.7567   -4.6238   -5.7487 S.3       12 UNK        -0.2522 
     17 C17        27.1407   -2.8774   -5.3922 C.3       12 UNK        -0.0967 
     18 CA         26.8253   -1.9286   -6.5717 C.3       5 UNK         0.0660 
     19 N          25.4240   -1.4863   -6.5414 N.am      5 UNK        -0.4015 
     20 C          24.8552   -0.5607   -7.3290 C.2       4 UNK         0.4946 
     21 O          25.4630    0.0887   -8.1791 O.2       4 UNK        -0.5353 
     22 CA         23.3500   -0.2977   -7.1537 C.3       4 UNK         0.0277 
     23 CB         22.5541   -1.0384   -8.2404 C.3       4 UNK        -0.1981 
     24 N          22.8110   -0.6470   -5.8359 N.am      4 UNK        -0.4209 
     25 C          23.1377   -0.0422   -4.6855 C.2       3 UNK         0.4942 
     26 O          23.9862    0.8479   -4.6011 O.2       3 UNK        -0.5208 
     27 CA         22.3758   -0.4712   -3.4155 C.3       3 UNK         0.0250 
     28 CB         21.4099   -1.6648   -3.6102 C.3       3 UNK        -0.1990 
     29 N          23.2912   -0.7084   -2.2948 N.am      3 UNK        -0.4232 
     30 C          24.2476   -1.6447   -2.2211 C.2       2 UNK         0.4993 
     31 O          24.4434   -2.5076   -3.0804 O.2       2 UNK        -0.5286 
     32 CA         25.0914   -1.6314   -0.9335 C.3       2 UNK         0.0209 
     33 CB         24.3658   -2.3943    0.1880 C.3       2 UNK        -0.1931 
     34 N          26.4305   -2.2041   -1.0996 N.am      2 UNK        -0.4546 
     35 C          27.3947   -1.7024   -1.8849 C.2       1 UNK         0.5154 
     36 O          27.2261   -0.7220   -2.6145 O.2       1 UNK        -0.5181 
     37 C          27.8427   -0.7714   -6.5978 C.2       5 UNK         0.5014 
     38 O          28.7121   -0.7548   -7.4712 O.2       5 UNK        -0.5248 
     39 N          27.6985    0.1775   -5.6613 N.am      6 UNK        -0.4434 
     40 CA         28.5678    1.3477   -5.5184 C.3       6 UNK         0.0363 
     41 CB         28.1556    2.1440   -4.2706 C.3       6 UNK        -0.1936 
     42 C          28.6012    2.2664   -6.7513 C.2       6 UNK         0.5081 
     43 O          29.6275    2.9037   -6.9863 O.2       6 UNK        -0.5248 
     44 N          27.5009    2.3122   -7.5135 N.am      7 UNK        -0.4718 
     45 CA         27.4009    3.0525   -8.7694 C.3       7 UNK         0.0273 
     46 CB         25.9551    3.5370   -8.9676 C.3       7 UNK        -0.1935 
     47 C          27.8571    2.1928   -9.9565 C.2       7 UNK         0.5018 
     48 O          28.6334    2.6725  -10.7818 O.2       7 UNK        -0.5186 
     49 N          27.3774    0.9418  -10.0164 N.am      8 UNK        -0.4240 
     50 CA         27.6210   -0.0130  -11.1007 C.3       8 UNK         0.0235 
     51 CB         26.7446   -1.2595  -10.8942 C.3       8 UNK        -0.2000 
     52 C          29.0967   -0.4091  -11.2536 C.2       8 UNK         0.4941 
     53 O          29.6037   -0.4191  -12.3761 O.2       8 UNK        -0.5273 
     54 N          29.7610   -0.7105  -10.1302 N.am      9 UNK        -0.4262 
     55 CA         31.1901   -1.0331  -10.0848 C.3       9 UNK         0.0264 
     56 CB         31.4276   -2.0722   -8.9795 C.3       9 UNK        -0.1955 
     57 C          32.0683    0.2091   -9.8532 C.2       9 UNK         0.5031 
     58 O          33.2927    0.0895   -9.9089 O.2       9 UNK        -0.5390 
     59 N          31.4397    1.3613   -9.5710 N.am      10 UNK        -0.4204 
     60 CA         32.0404    2.6612   -9.2435 C.3       10 UNK         0.0237 
     61 CB         32.8350    3.2192  -10.4437 C.3       10 UNK        -0.1985 
     62 C          32.8609    2.6665   -7.9350 C.2       10 UNK         0.4970 
     63 O          33.6715    3.5737   -7.7373 O.2       10 UNK        -0.4914 
     64 N          32.6414    1.6720   -7.0636 N.am      11 UNK        -0.4285 
     65 CA         33.3105    1.5317   -5.7630 C.3       11 UNK         0.1007 
     66 C          32.7234    2.4157   -4.6246 C.2       11 UNK         0.5703 
     67 N          31.6152    3.1195   -4.8237 N.am      11 UNK        -0.7361 
     68 O          33.3029    2.4842   -3.5436 O.2       11 UNK        -0.4986 
     69 C69        33.4758    0.0430   -5.3560 C.3       12 UNK        -0.0947 
     70 S70        31.9163   -0.8853   -5.1643 S.3       12 UNK        -0.2240 
     71 C71        32.5395   -2.5831   -5.3692 C.3       12 UNK         0.0194 
     72 H72        31.9324    0.7089   -0.6692 H         1 UNK         0.0906 
     73 H73        31.9805    0.0057   -2.2817 H         1 UNK         0.0906 
     74 H74        30.9426    1.3979   -1.9592 H         1 UNK         0.0906 
     75 H75        30.3869   -1.5022   -2.8750 H         1 UNK         0.3140 
     76 H76        28.7926   -2.9869   -2.7887 H         1 UNK         0.1085 
     77 H77        28.7642   -2.9109    0.2623 H         1 UNK         0.0836 
     78 H78        28.2413   -4.2266   -0.7611 H         1 UNK         0.0836 
     79 H79        31.4507   -6.1503   -1.6097 H         1 UNK         0.0731 
     80 H80        29.7042   -6.1461   -1.5457 H         1 UNK         0.0731 
     81 H81        32.3182   -3.8028   -2.9504 H         1 UNK         0.1312 
     82 H82        30.4488   -3.5997   -6.7976 H         1 UNK         0.1406 
     83 H83        28.7886   -6.1121   -3.7477 H         1 UNK         0.1631 
     84 H84        28.5579   -4.9118   -7.3229 H         1 UNK         0.0717 
     85 H85        28.2964   -6.3678   -6.3959 H         1 UNK         0.0717 
     86 H86        26.5644   -2.5878   -4.5153 H         1 UNK         0.0934 
     87 H87        28.1758   -2.7892   -5.0677 H         1 UNK         0.0934 
     88 H88        26.9621   -2.4715   -7.5089 H         1 UNK         0.0739 
     89 H89        24.8348   -1.9504   -5.8646 H         1 UNK         0.3093 
     90 H90        23.1989    0.7747   -7.2954 H         1 UNK         0.0818 
     91 H91        21.4958   -0.7790   -8.2054 H         1 UNK         0.0819 
     92 H92        22.9158   -0.7760   -9.2360 H         1 UNK         0.0819 
     93 H93        22.6402   -2.1209   -8.1382 H         1 UNK         0.0819 
     94 H94        22.1066   -1.3703   -5.8103 H         1 UNK         0.3041 
     95 H95        21.7702    0.3908   -3.1315 H         1 UNK         0.0784 
     96 H96        20.6295   -1.4305   -4.3353 H         1 UNK         0.0793 
     97 H97        21.9238   -2.5645   -3.9504 H         1 UNK         0.0793 
     98 H98        20.9049   -1.9119   -2.6762 H         1 UNK         0.0793 
     99 H99        23.2232   -0.0389   -1.5409 H         1 UNK         0.3024 
    100 H100       25.2219   -0.5914   -0.6249 H         1 UNK         0.1171 
    101 H101       23.3755   -1.9759    0.3731 H         1 UNK         0.0786 
    102 H102       24.2309   -3.4471   -0.0644 H         1 UNK         0.0786 
    103 H103       24.9165   -2.3410    1.1274 H         1 UNK         0.0786 
    104 H104       26.6291   -3.0315   -0.5580 H         1 UNK         0.2977 
    105 H105       26.9723    0.0685   -4.9645 H         1 UNK         0.3127 
    106 H106       29.5841    0.9811   -5.3660 H         1 UNK         0.0770 
    107 H107       27.1049    2.4347   -4.3064 H         1 UNK         0.0814 
    108 H108       28.7439    3.0570   -4.1723 H         1 UNK         0.0814 
    109 H109       28.3146    1.5644   -3.3616 H         1 UNK         0.0814 
    110 H110       26.7253    1.7047   -7.2804 H         1 UNK         0.2983 
    111 H111       28.0464    3.9331   -8.7256 H         1 UNK         0.0947 
    112 H112       25.8572    4.0995   -9.8971 H         1 UNK         0.0806 
    113 H113       25.6453    4.1961   -8.1566 H         1 UNK         0.0806 
    114 H114       25.2479    2.7078   -9.0124 H         1 UNK         0.0806 
    115 H115       26.7296    0.6375   -9.2893 H         1 UNK         0.3000 
    116 H116       27.3126    0.4674  -12.0316 H         1 UNK         0.0850 
    117 H117       26.8928   -1.9811  -11.6987 H         1 UNK         0.0810 
    118 H118       25.6856   -1.0009  -10.8812 H         1 UNK         0.0810 
    119 H119       26.9752   -1.7632   -9.9547 H         1 UNK         0.0810 
    120 H120       29.2704   -0.6927   -9.2358 H         1 UNK         0.3040 
    121 H121       31.4989   -1.4771  -11.0336 H         1 UNK         0.0766 
    122 H122       30.8334   -2.9704   -9.1469 H         1 UNK         0.0812 
    123 H123       31.1698   -1.6728   -7.9991 H         1 UNK         0.0812 
    124 H124       32.4744   -2.3768   -8.9444 H         1 UNK         0.0812 
    125 H125       30.4291    1.3456   -9.5749 H         1 UNK         0.3205 
    126 H126       31.2032    3.3387   -9.0717 H         1 UNK         0.0754 
    127 H127       33.1442    4.2497  -10.2648 H         1 UNK         0.0769 
    128 H128       32.2317    3.2180  -11.3518 H         1 UNK         0.0769 
    129 H129       33.7375    2.6392  -10.6384 H         1 UNK         0.0769 
    130 H130       31.9373    0.9822   -7.2759 H         1 UNK         0.2981 
    131 H131       34.3268    1.9084   -5.8927 H         1 UNK         0.0541 
    132 H132       31.1143    3.0728   -5.7046 H         1 UNK         0.3459 
    133 H133       31.2713    3.7050   -4.0809 H         1 UNK         0.3459 
    134 H134       34.0400   -0.0393   -4.4253 H         1 UNK         0.0612 
    135 H135       34.0813   -0.4610   -6.1111 H         1 UNK         0.0612 
    136 H136       33.4537   -2.7045   -4.7857 H         1 UNK         0.0624 
    137 H137       32.8153   -2.7495   -6.4109 H         1 UNK         0.0624 
@<TRIPOS>BOND
     1    1    2 1    
     2    1   72 1    
     3    1   73 1    
     4    1   74 1    
     5    2    3 2    
     6    2    4 am   BACKBONE|DICT|INTERRES
     7    4    5 1    
     8    4   75 1    
     9    5    6 1    
    10    5   35 1    
    11    5   76 1    
    12    6    7 1    
    13    6   77 1    
    14    6   78 1    
    15    7    8 1    
    16    8    9 1    
    17    8   79 1    
    18    8   80 1    
    19    9   10 ar   
    20    9   14 ar   
    21   10   11 ar   
    22   10   81 1    
    23   11   12 ar   
    24   11   71 1    
    25   12   13 ar   
    26   12   82 1    
    27   13   14 ar   
    28   13   15 1    
    29   14   83 1    
    30   15   16 1    
    31   15   84 1    
    32   15   85 1    
    33   16   17 1    
    34   17   18 1    
    35   17   86 1    
    36   17   87 1    
    37   18   19 1    
    38   18   37 1    
    39   18   88 1    
    40   19   20 am   BACKBONE|DICT|INTERRES
    41   19   89 1    
    42   20   21 2    
    43   20   22 1    
    44   22   23 1    
    45   22   24 1    
    46   22   90 1    
    47   23   91 1    
    48   23   92 1    
    49   23   93 1    
    50   24   25 am   BACKBONE|DICT|INTERRES
    51   24   94 1    
    52   25   26 2    
    53   25   27 1    
    54   27   28 1    
    55   27   29 1    
    56   27   95 1    
    57   28   96 1    
    58   28   97 1    
    59   28   98 1    
    60   29   30 am   BACKBONE|DICT|INTERRES
    61   29   99 1    
    62   30   31 2    
    63   30   32 1    
    64   32   33 1    
    65   32   34 1    
    66   32  100 1    
    67   33  101 1    
    68   33  102 1    
    69   33  103 1    
    70   34   35 am   BACKBONE|DICT|INTERRES
    71   34  104 1    
    72   35   36 2    
    73   37   38 2    
    74   37   39 am   BACKBONE|DICT|INTERRES
    75   39   40 1    
    76   39  105 1    
    77   40   41 1    
    78   40   42 1    
    79   40  106 1    
    80   41  107 1    
    81   41  108 1    
    82   41  109 1    
    83   42   43 2    
    84   42   44 am   BACKBONE|DICT|INTERRES
    85   44   45 1    
    86   44  110 1    
    87   45   46 1    
    88   45   47 1    
    89   45  111 1    
    90   46  112 1    
    91   46  113 1    
    92   46  114 1    
    93   47   48 2    
    94   47   49 am   BACKBONE|DICT|INTERRES
    95   49   50 1    
    96   49  115 1    
    97   50   51 1    
    98   50   52 1    
    99   50  116 1    
   100   51  117 1    
   101   51  118 1    
   102   51  119 1    
   103   52   53 2    
   104   52   54 am   BACKBONE|DICT|INTERRES
   105   54   55 1    
   106   54  120 1    
   107   55   56 1    
   108   55   57 1    
   109   55  121 1    
   110   56  122 1    
   111   56  123 1    
   112   56  124 1    
   113   57   58 2    
   114   57   59 am   BACKBONE|DICT|INTERRES
   115   59   60 1    
   116   59  125 1    
   117   60   61 1    
   118   60   62 1    
   119   60  126 1    
   120   61  127 1    
   121   61  128 1    
   122   61  129 1    
   123   62   63 2    
   124   62   64 am   BACKBONE|DICT|INTERRES
   125   64   65 1    
   126   64  130 1    
   127   65   66 1    
   128   65   69 1    
   129   65  131 1    
   130   66   67 am   BACKBONE|DICT|INTERRES
   131   66   68 2    
   132   67  132 1    
   133   67  133 1    
   134   69   70 1    
   135   69  134 1    
   136   69  135 1    
   137   70   71 1    
   138   71  136 1    
   139   71  137 1    
@<TRIPOS>SUBSTRUCTURE
     1 UNK         1 GROUP             0       ****    0 ROOT    
