@<TRIPOS>MOLECULE
3R137
137   139    1
SMALL
USER_CHARGES


@<TRIPOS>ATOM
      1 CA         29.6131   -0.6065    1.0936 C.3       0 UNK        -0.2020 
      2 C          29.1542   -1.3160   -0.1710 C.2       0 UNK         0.4855 
      3 O          29.2063   -0.7317   -1.2514 O.2       0 UNK        -0.5197 
      4 N          28.6928   -2.5666   -0.0413 N.am      1 UNK        -0.4892 
      5 CA         28.2668   -3.4298   -1.1556 C.3       1 UNK         0.0835 
      6 C6         28.5469   -4.9310   -0.8715 C.3       12 UNK        -0.0855 
      7 S7         30.2945   -5.2513   -0.4346 S.3       12 UNK        -0.2931 
      8 C8         31.0046   -5.8277   -2.0151 C.3       12 UNK         0.0378 
      9 C9         30.8083   -4.8260   -3.1466 C.ar      12 UNK        -0.0802 
     10 C10        31.3325   -3.5317   -3.0473 C.ar      12 UNK        -0.0944 
     11 C11        31.0922   -2.5875   -4.0502 C.ar      12 UNK        -0.0787 
     12 C12        30.3493   -2.9627   -5.1733 C.ar      12 UNK        -0.0862 
     13 C13        29.8537   -4.2622   -5.3062 C.ar      12 UNK        -0.0733 
     14 C14        30.0821   -5.1891   -4.2859 C.ar      12 UNK        -0.0832 
     15 C15        29.0948   -4.6663   -6.5640 C.3       12 UNK         0.0240 
     16 S16        27.3363   -5.0427   -6.2676 S.3       12 UNK        -0.2522 
     17 C17        26.6875   -3.4961   -5.5519 C.3       12 UNK        -0.0967 
     18 CA         26.3712   -2.4037   -6.6074 C.3       5 UNK         0.0660 
     19 N          25.1090   -1.7147   -6.3342 N.am      5 UNK        -0.4015 
     20 C          24.4721   -0.9202   -7.2063 C.2       4 UNK         0.4946 
     21 O          24.8537   -0.7164   -8.3591 O.2       4 UNK        -0.5353 
     22 CA         23.2167   -0.1990   -6.6886 C.3       4 UNK         0.0277 
     23 CB         21.9910   -1.1242   -6.7535 C.3       4 UNK        -0.1981 
     24 N          23.3793    0.3131   -5.3249 N.am      4 UNK        -0.4209 
     25 C          24.2502    1.2730   -4.9829 C.2       3 UNK         0.4942 
     26 O          24.9888    1.8450   -5.7832 O.2       3 UNK        -0.5208 
     27 CA         24.3401    1.6375   -3.4931 C.3       3 UNK         0.0250 
     28 CB         23.2697    2.6797   -3.1308 C.3       3 UNK        -0.1990 
     29 N          24.2490    0.4988   -2.5712 N.am      3 UNK        -0.4232 
     30 C          25.0503   -0.5766   -2.5738 C.2       2 UNK         0.4993 
     31 O          25.8789   -0.8135   -3.4572 O.2       2 UNK        -0.5286 
     32 CA         24.8801   -1.5339   -1.3813 C.3       2 UNK         0.0209 
     33 CB         23.7464   -2.5513   -1.6258 C.3       2 UNK        -0.1931 
     34 N          26.1551   -2.1647   -1.0097 N.am      2 UNK        -0.4546 
     35 C          26.8026   -3.1875   -1.5895 C.2       1 UNK         0.5154 
     36 O          26.3009   -3.9332   -2.4296 O.2       1 UNK        -0.5181 
     37 C          27.5186   -1.3869   -6.7204 C.2       5 UNK         0.5014 
     38 O          28.2874   -1.4447   -7.6802 O.2       5 UNK        -0.5248 
     39 N          27.5947   -0.4596   -5.7534 N.am      6 UNK        -0.4434 
     40 CA         28.5934    0.6087   -5.6981 C.3       6 UNK         0.0363 
     41 CB         28.4136    1.4249   -4.4101 C.3       6 UNK        -0.1936 
     42 C          28.5783    1.5205   -6.9330 C.2       6 UNK         0.5081 
     43 O          29.6484    1.8535   -7.4413 O.2       6 UNK        -0.5248 
     44 N          27.3785    1.8713   -7.4152 N.am      7 UNK        -0.4718 
     45 CA         27.1713    2.6208   -8.6543 C.3       7 UNK         0.0273 
     46 CB         25.7030    3.0646   -8.7506 C.3       7 UNK        -0.1935 
     47 C          27.5805    1.8276   -9.9060 C.2       7 UNK         0.5018 
     48 O          28.2267    2.3953  -10.7865 O.2       7 UNK        -0.5186 
     49 N          27.2116    0.5387   -9.9619 N.am      8 UNK        -0.4240 
     50 CA         27.5254   -0.3639  -11.0738 C.3       8 UNK         0.0235 
     51 CB         26.7214   -1.6667  -10.9327 C.3       8 UNK        -0.2000 
     52 C          29.0278   -0.6635  -11.2029 C.2       8 UNK         0.4941 
     53 O          29.5604   -0.6137  -12.3124 O.2       8 UNK        -0.5273 
     54 N          29.6836   -0.9599  -10.0731 N.am      9 UNK        -0.4262 
     55 CA         31.1206   -1.2398  -10.0010 C.3       9 UNK         0.0264 
     56 CB         31.4092   -2.0420   -8.7248 C.3       9 UNK        -0.1955 
     57 C          31.9969    0.0246  -10.0378 C.2       9 UNK         0.5031 
     58 O          33.1946   -0.0959  -10.2996 O.2       9 UNK        -0.5390 
     59 N          31.3988    1.1934   -9.7618 N.am      10 UNK        -0.4204 
     60 CA         32.0291    2.5087   -9.6116 C.3       10 UNK         0.0237 
     61 CB         32.6620    2.9864  -10.9365 C.3       10 UNK        -0.1985 
     62 C          33.0007    2.5385   -8.4163 C.2       10 UNK         0.4970 
     63 O          34.1645    2.9149   -8.5701 O.2       10 UNK        -0.4914 
     64 N          32.4951    2.1338   -7.2432 N.am      11 UNK        -0.4285 
     65 CA         33.2314    2.1417   -5.9665 C.3       11 UNK         0.1007 
     66 C          33.5117    3.5639   -5.3966 C.2       11 UNK         0.5703 
     67 N          32.8325    4.6114   -5.8507 N.am      11 UNK        -0.7361 
     68 O          34.3675    3.7186   -4.5286 O.2       11 UNK        -0.4986 
     69 C69        32.5494    1.2566   -4.8895 C.3       12 UNK        -0.0947 
     70 S70        32.4453   -0.5029   -5.3488 S.3       12 UNK        -0.2240 
     71 C71        31.5746   -1.1505   -3.8823 C.3       12 UNK         0.0194 
     72 H72        30.6627   -0.3276    1.0048 H         1 UNK         0.0906 
     73 H73        29.0313    0.3020    1.2469 H         1 UNK         0.0906 
     74 H74        29.5031   -1.2342    1.9777 H         1 UNK         0.0906 
     75 H75        28.6792   -3.0010    0.8712 H         1 UNK         0.3140 
     76 H76        28.8509   -3.1530   -2.0340 H         1 UNK         0.1085 
     77 H77        27.9214   -5.2832   -0.0494 H         1 UNK         0.0836 
     78 H78        28.2828   -5.5453   -1.7347 H         1 UNK         0.0836 
     79 H79        32.0723   -6.0049   -1.8793 H         1 UNK         0.0731 
     80 H80        30.5629   -6.7931   -2.2671 H         1 UNK         0.0731 
     81 H81        31.8859   -3.2489   -2.1621 H         1 UNK         0.1312 
     82 H82        30.1593   -2.2363   -5.9479 H         1 UNK         0.1406 
     83 H83        29.6826   -6.1901   -4.3793 H         1 UNK         0.1631 
     84 H84        29.5701   -5.5499   -6.9918 H         1 UNK         0.0717 
     85 H85        29.1648   -3.8933   -7.3282 H         1 UNK         0.0717 
     86 H86        25.7723   -3.7821   -5.0313 H         1 UNK         0.0934 
     87 H87        27.3534   -3.1403   -4.7629 H         1 UNK         0.0934 
     88 H88        26.2595   -2.8798   -7.5841 H         1 UNK         0.0739 
     89 H89        24.7702   -1.7600   -5.3838 H         1 UNK         0.3093 
     90 H90        23.0348    0.6544   -7.3458 H         1 UNK         0.0818 
     91 H91        21.0795   -0.5952   -6.4742 H         1 UNK         0.0819 
     92 H92        21.8445   -1.5048   -7.7655 H         1 UNK         0.0819 
     93 H93        22.0953   -1.9862   -6.0933 H         1 UNK         0.0819 
     94 H94        22.8075   -0.0990   -4.6019 H         1 UNK         0.3041 
     95 H95        25.3179    2.0953   -3.3339 H         1 UNK         0.0784 
     96 H96        23.3289    3.5459   -3.7918 H         1 UNK         0.0793 
     97 H97        22.2615    2.2725   -3.2171 H         1 UNK         0.0793 
     98 H98        23.3990    3.0452   -2.1119 H         1 UNK         0.0793 
     99 H99        23.5800    0.5951   -1.8205 H         1 UNK         0.3024 
    100 H100       24.6005   -0.9323   -0.5146 H         1 UNK         0.1171 
    101 H101       22.7805   -2.0488   -1.6866 H         1 UNK         0.0786 
    102 H102       23.6823   -3.2786   -0.8165 H         1 UNK         0.0786 
    103 H103       23.8790   -3.0976   -2.5602 H         1 UNK         0.0786 
    104 H104       26.7021   -1.6413   -0.3406 H         1 UNK         0.2977 
    105 H105       26.9348   -0.5088   -4.9784 H         1 UNK         0.3127 
    106 H106       29.5713    0.1298   -5.6680 H         1 UNK         0.0770 
    107 H107       27.4477    1.9283   -4.3869 H         1 UNK         0.0814 
    108 H108       29.1822    2.1934   -4.3224 H         1 UNK         0.0814 
    109 H109       28.4825    0.7913   -3.5253 H         1 UNK         0.0814 
    110 H110       26.5450    1.6150   -6.8911 H         1 UNK         0.2983 
    111 H111       27.7961    3.5158   -8.6119 H         1 UNK         0.0947 
    112 H112       25.5233    3.6300   -9.6660 H         1 UNK         0.0806 
    113 H113       25.4289    3.7067   -7.9133 H         1 UNK         0.0806 
    114 H114       25.0229    2.2117   -8.7519 H         1 UNK         0.0806 
    115 H115       26.6611    0.1523   -9.2026 H         1 UNK         0.3000 
    116 H116       27.2091    0.1273  -11.9965 H         1 UNK         0.0850 
    117 H117       26.9350   -2.3498  -11.7557 H         1 UNK         0.0810 
    118 H118       25.6488   -1.4722  -10.9433 H         1 UNK         0.0810 
    119 H119       26.9557   -2.1890  -10.0045 H         1 UNK         0.0810 
    120 H120       29.1560   -1.0299   -9.2018 H         1 UNK         0.3040 
    121 H121       31.3995   -1.8557  -10.8586 H         1 UNK         0.0766 
    122 H122       32.4699   -2.2812   -8.6381 H         1 UNK         0.0812 
    123 H123       30.8622   -2.9838   -8.7152 H         1 UNK         0.0812 
    124 H124       31.1295   -1.4753   -7.8379 H         1 UNK         0.0812 
    125 H125       30.4197    1.1617   -9.5071 H         1 UNK         0.3205 
    126 H126       31.2233    3.2033   -9.3690 H         1 UNK         0.0754 
    127 H127       33.0228    4.0117  -10.8466 H         1 UNK         0.0769 
    128 H128       31.9361    2.9680  -11.7496 H         1 UNK         0.0769 
    129 H129       33.5116    2.3697  -11.2312 H         1 UNK         0.0769 
    130 H130       31.5116    1.8776   -7.2042 H         1 UNK         0.2981 
    131 H131       34.2131    1.7073   -6.1651 H         1 UNK         0.0541 
    132 H132       32.1239    4.4947   -6.5565 H         1 UNK         0.3459 
    133 H133       33.0279    5.5261   -5.4758 H         1 UNK         0.3459 
    134 H134       31.5435    1.6248   -4.6830 H         1 UNK         0.0612 
    135 H135       33.0963    1.3104   -3.9460 H         1 UNK         0.0612 
    136 H136       32.2391   -1.0660   -3.0212 H         1 UNK         0.0624 
    137 H137       30.7096   -0.5237   -3.6643 H         1 UNK         0.0624 
@<TRIPOS>BOND
     1    1    2 1    
     2    1   72 1    
     3    1   73 1    
     4    1   74 1    
     5    2    3 2    
     6    2    4 am   BACKBONE|DICT|INTERRES
     7    4    5 1    
     8    4   75 1    
     9    5    6 1    
    10    5   35 1    
    11    5   76 1    
    12    6    7 1    
    13    6   77 1    
    14    6   78 1    
    15    7    8 1    
    16    8    9 1    
    17    8   79 1    
    18    8   80 1    
    19    9   10 ar   
    20    9   14 ar   
    21   10   11 ar   
    22   10   81 1    
    23   11   12 ar   
    24   11   71 1    
    25   12   13 ar   
    26   12   82 1    
    27   13   14 ar   
    28   13   15 1    
    29   14   83 1    
    30   15   16 1    
    31   15   84 1    
    32   15   85 1    
    33   16   17 1    
    34   17   18 1    
    35   17   86 1    
    36   17   87 1    
    37   18   19 1    
    38   18   37 1    
    39   18   88 1    
    40   19   20 am   BACKBONE|DICT|INTERRES
    41   19   89 1    
    42   20   21 2    
    43   20   22 1    
    44   22   23 1    
    45   22   24 1    
    46   22   90 1    
    47   23   91 1    
    48   23   92 1    
    49   23   93 1    
    50   24   25 am   BACKBONE|DICT|INTERRES
    51   24   94 1    
    52   25   26 2    
    53   25   27 1    
    54   27   28 1    
    55   27   29 1    
    56   27   95 1    
    57   28   96 1    
    58   28   97 1    
    59   28   98 1    
    60   29   30 am   BACKBONE|DICT|INTERRES
    61   29   99 1    
    62   30   31 2    
    63   30   32 1    
    64   32   33 1    
    65   32   34 1    
    66   32  100 1    
    67   33  101 1    
    68   33  102 1    
    69   33  103 1    
    70   34   35 am   BACKBONE|DICT|INTERRES
    71   34  104 1    
    72   35   36 2    
    73   37   38 2    
    74   37   39 am   BACKBONE|DICT|INTERRES
    75   39   40 1    
    76   39  105 1    
    77   40   41 1    
    78   40   42 1    
    79   40  106 1    
    80   41  107 1    
    81   41  108 1    
    82   41  109 1    
    83   42   43 2    
    84   42   44 am   BACKBONE|DICT|INTERRES
    85   44   45 1    
    86   44  110 1    
    87   45   46 1    
    88   45   47 1    
    89   45  111 1    
    90   46  112 1    
    91   46  113 1    
    92   46  114 1    
    93   47   48 2    
    94   47   49 am   BACKBONE|DICT|INTERRES
    95   49   50 1    
    96   49  115 1    
    97   50   51 1    
    98   50   52 1    
    99   50  116 1    
   100   51  117 1    
   101   51  118 1    
   102   51  119 1    
   103   52   53 2    
   104   52   54 am   BACKBONE|DICT|INTERRES
   105   54   55 1    
   106   54  120 1    
   107   55   56 1    
   108   55   57 1    
   109   55  121 1    
   110   56  122 1    
   111   56  123 1    
   112   56  124 1    
   113   57   58 2    
   114   57   59 am   BACKBONE|DICT|INTERRES
   115   59   60 1    
   116   59  125 1    
   117   60   61 1    
   118   60   62 1    
   119   60  126 1    
   120   61  127 1    
   121   61  128 1    
   122   61  129 1    
   123   62   63 2    
   124   62   64 am   BACKBONE|DICT|INTERRES
   125   64   65 1    
   126   64  130 1    
   127   65   66 1    
   128   65   69 1    
   129   65  131 1    
   130   66   67 am   BACKBONE|DICT|INTERRES
   131   66   68 2    
   132   67  132 1    
   133   67  133 1    
   134   69   70 1    
   135   69  134 1    
   136   69  135 1    
   137   70   71 1    
   138   71  136 1    
   139   71  137 1    
@<TRIPOS>SUBSTRUCTURE
     1 UNK         1 GROUP             0       ****    0 ROOT    
