@<TRIPOS>MOLECULE
3R137
137   139    1
SMALL
USER_CHARGES


@<TRIPOS>ATOM
      1 CA         30.3822    0.9560   -2.0345 C.3       0 UNK        -0.2020 
      2 C          29.7771   -0.3821   -2.4305 C.2       0 UNK         0.4855 
      3 O          29.4766   -0.5869   -3.6031 O.2       0 UNK        -0.5197 
      4 N          29.6039   -1.2901   -1.4598 N.am      1 UNK        -0.4892 
      5 CA         29.0008   -2.6174   -1.6470 C.3       1 UNK         0.0835 
      6 C6         29.3910   -3.5522   -0.4694 C.3       12 UNK        -0.0855 
      7 S7         28.9574   -5.3111   -0.7089 S.3       12 UNK        -0.2931 
      8 C8         30.5031   -6.0013   -1.3858 C.3       12 UNK         0.0378 
      9 C9         30.8380   -5.4025   -2.7436 C.ar      12 UNK        -0.0802 
     10 C10        31.9666   -4.5905   -2.9004 C.ar      12 UNK        -0.0944 
     11 C11        32.2460   -4.0021   -4.1371 C.ar      12 UNK        -0.0787 
     12 C12        31.3939   -4.2356   -5.2178 C.ar      12 UNK        -0.0862 
     13 C13        30.2593   -5.0361   -5.0729 C.ar      12 UNK        -0.0733 
     14 C14        29.9959   -5.6329   -3.8371 C.ar      12 UNK        -0.0832 
     15 C15        29.3079   -5.2311   -6.2457 C.3       12 UNK         0.0240 
     16 S16        27.7104   -4.3974   -5.9729 S.3       12 UNK        -0.2522 
     17 C17        28.2004   -2.6448   -5.8052 C.3       12 UNK        -0.0967 
     18 CA         27.4035   -1.7208   -6.7494 C.3       5 UNK         0.0660 
     19 N          25.9677   -1.7548   -6.4613 N.am      5 UNK        -0.4015 
     20 C          25.0173   -1.3445   -7.3091 C.2       4 UNK         0.4946 
     21 O          25.2479   -0.8764   -8.4246 O.2       4 UNK        -0.5353 
     22 CA         23.5661   -1.4506   -6.8128 C.3       4 UNK         0.0277 
     23 CB         23.0889   -2.9123   -6.8188 C.3       4 UNK        -0.1981 
     24 N          23.3753   -0.8707   -5.4798 N.am      4 UNK        -0.4209 
     25 C          23.5278    0.4313   -5.2011 C.2       3 UNK         0.4942 
     26 O          23.8581    1.2742   -6.0320 O.2       3 UNK        -0.5208 
     27 CA         23.2895    0.8809   -3.7515 C.3       3 UNK         0.0250 
     28 CB         21.7921    1.1301   -3.5085 C.3       3 UNK        -0.1990 
     29 N          23.8103   -0.0167   -2.7152 N.am      3 UNK        -0.4232 
     30 C          25.0683   -0.4714   -2.6204 C.2       2 UNK         0.4993 
     31 O          25.9223   -0.3144   -3.4969 O.2       2 UNK        -0.5286 
     32 CA         25.4190   -1.1667   -1.2900 C.3       2 UNK         0.0209 
     33 CB         24.4846   -2.3588   -0.9805 C.3       2 UNK        -0.1931 
     34 N          26.8354   -1.5471   -1.1988 N.am      2 UNK        -0.4546 
     35 C          27.4703   -2.5311   -1.8552 C.2       1 UNK         0.5154 
     36 O          26.9093   -3.3365   -2.5989 O.2       1 UNK        -0.5181 
     37 C          27.9505   -0.2785   -6.7325 C.2       5 UNK         0.5014 
     38 O          28.8448    0.0341   -7.5240 O.2       5 UNK        -0.5248 
     39 N          27.3797    0.5843   -5.8771 N.am      6 UNK        -0.4434 
     40 CA         27.6578    2.0195   -5.8403 C.3       6 UNK         0.0363 
     41 CB         27.0281    2.6442   -4.5864 C.3       6 UNK        -0.1936 
     42 C          27.1836    2.7376   -7.1150 C.2       6 UNK         0.5081 
     43 O          27.9502    3.5158   -7.6802 O.2       6 UNK        -0.5248 
     44 N          25.9598    2.4384   -7.5784 N.am      7 UNK        -0.4718 
     45 CA         25.3927    2.9573   -8.8301 C.3       7 UNK         0.0273 
     46 CB         23.9039    2.5893   -8.9259 C.3       7 UNK        -0.1935 
     47 C          26.1471    2.4730  -10.0789 C.2       7 UNK         0.5018 
     48 O          26.3069    3.2449  -11.0250 O.2       7 UNK        -0.5186 
     49 N          26.6349    1.2247  -10.0435 N.am      8 UNK        -0.4240 
     50 CA         27.5327    0.6513  -11.0510 C.3       8 UNK         0.0235 
     51 CB         27.5740   -0.8757  -10.8750 C.3       8 UNK        -0.2000 
     52 C          28.9613    1.2323  -11.0101 C.2       8 UNK         0.4941 
     53 O          29.7235    0.9892  -11.9465 O.2       8 UNK        -0.5273 
     54 N          29.3012    1.9655   -9.9372 N.am      9 UNK        -0.4262 
     55 CA         30.6021    2.5685   -9.6309 C.3       9 UNK         0.0264 
     56 CB         30.9412    3.6883  -10.6377 C.3       9 UNK        -0.1955 
     57 C          31.7227    1.5224   -9.4838 C.2       9 UNK         0.5031 
     58 O          32.8485    1.7627   -9.9253 O.2       9 UNK        -0.5390 
     59 N          31.3957    0.3755   -8.8698 N.am      10 UNK        -0.4204 
     60 CA         32.3212   -0.7436   -8.6775 C.3       10 UNK         0.0237 
     61 CB         31.5256   -2.0046   -8.3161 C.3       10 UNK        -0.1985 
     62 C          33.4041   -0.4464   -7.6254 C.2       10 UNK         0.4970 
     63 O          34.5649   -0.7974   -7.8393 O.2       10 UNK        -0.4914 
     64 N          33.0098    0.2139   -6.5312 N.am      11 UNK        -0.4285 
     65 CA         33.8951    0.6891   -5.4562 C.3       11 UNK         0.1007 
     66 C          33.3277    1.9194   -4.6889 C.2       11 UNK         0.5703 
     67 N          32.2885    2.5893   -5.1770 N.am      11 UNK        -0.7361 
     68 O          33.8504    2.2962   -3.6427 O.2       11 UNK        -0.4986 
     69 C69        34.4097   -0.4512   -4.5287 C.3       12 UNK        -0.0947 
     70 S70        33.0737   -1.4103   -3.7389 S.3       12 UNK        -0.2240 
     71 C71        33.4510   -3.0932   -4.3112 C.3       12 UNK         0.0194 
     72 H72        30.4596    1.0673   -0.9533 H         1 UNK         0.0906 
     73 H73        31.3808    1.0526   -2.4592 H         1 UNK         0.0906 
     74 H74        29.7700    1.7721   -2.4172 H         1 UNK         0.0906 
     75 H75        29.8966   -1.0670   -0.5190 H         1 UNK         0.3140 
     76 H76        29.4156   -3.0323   -2.5681 H         1 UNK         0.1085 
     77 H77        30.4661   -3.4913   -0.2919 H         1 UNK         0.0836 
     78 H78        28.9215   -3.2122    0.4556 H         1 UNK         0.0836 
     79 H79        30.3936   -7.0818   -1.4891 H         1 UNK         0.0731 
     80 H80        31.3140   -5.8414   -0.6733 H         1 UNK         0.0731 
     81 H81        32.6168   -4.3966   -2.0582 H         1 UNK         0.1312 
     82 H82        31.6070   -3.7768   -6.1700 H         1 UNK         0.1406 
     83 H83        29.1104   -6.2423   -3.7145 H         1 UNK         0.1631 
     84 H84        29.1304   -6.2974   -6.3917 H         1 UNK         0.0717 
     85 H85        29.7482   -4.8627   -7.1737 H         1 UNK         0.0717 
     86 H86        28.0443   -2.3487   -4.7688 H         1 UNK         0.0934 
     87 H87        29.2699   -2.5427   -5.9861 H         1 UNK         0.0934 
     88 H88        27.5438   -2.0948   -7.7655 H         1 UNK         0.0739 
     89 H89        25.7033   -2.0919   -5.5466 H         1 UNK         0.3093 
     90 H90        22.9415   -0.8888   -7.5110 H         1 UNK         0.0818 
     91 H91        23.2164   -3.3587   -7.8061 H         1 UNK         0.0819 
     92 H92        23.6451   -3.5268   -6.1097 H         1 UNK         0.0819 
     93 H93        22.0305   -2.9846   -6.5677 H         1 UNK         0.0819 
     94 H94        23.1106   -1.4960   -4.7327 H         1 UNK         0.3041 
     95 H95        23.8085    1.8332   -3.6271 H         1 UNK         0.0784 
     96 H96        21.3826    1.8104   -4.2570 H         1 UNK         0.0793 
     97 H97        21.2146    0.2060   -3.5577 H         1 UNK         0.0793 
     98 H98        21.6171    1.5849   -2.5333 H         1 UNK         0.0793 
     99 H99        23.1817   -0.2066   -1.9481 H         1 UNK         0.3024 
    100 H100       25.2708   -0.4190   -0.5088 H         1 UNK         0.1171 
    101 H101       24.8073   -2.8933   -0.0869 H         1 UNK         0.0786 
    102 H102       23.4621   -2.0270   -0.7991 H         1 UNK         0.0786 
    103 H103       24.4485   -3.0747   -1.8022 H         1 UNK         0.0786 
    104 H104       27.4137   -0.9200   -0.6582 H         1 UNK         0.2977 
    105 H105       26.7202    0.2294   -5.1885 H         1 UNK         0.3127 
    106 H106       28.7407    2.1425   -5.7697 H         1 UNK         0.0770 
    107 H107       25.9423    2.5511   -4.5913 H         1 UNK         0.0814 
    108 H108       27.2658    3.7064   -4.5184 H         1 UNK         0.0814 
    109 H109       27.4002    2.1674   -3.6792 H         1 UNK         0.0814 
    110 H110       25.3559    1.8294   -7.0295 H         1 UNK         0.2983 
    111 H111       25.4728    4.0462   -8.8034 H         1 UNK         0.0947 
    112 H112       23.4656    2.9636   -9.8520 H         1 UNK         0.0806 
    113 H113       23.3361    3.0217   -8.1019 H         1 UNK         0.0806 
    114 H114       23.7539    1.5091   -8.9047 H         1 UNK         0.0806 
    115 H115       26.3787    0.6267   -9.2635 H         1 UNK         0.3000 
    116 H116       27.1200    0.8714  -12.0378 H         1 UNK         0.0850 
    117 H117       28.1718   -1.3436  -11.6582 H         1 UNK         0.0810 
    118 H118       26.5755   -1.3104  -10.9258 H         1 UNK         0.0810 
    119 H119       28.0150   -1.1569   -9.9189 H         1 UNK         0.0810 
    120 H120       28.5965    2.1030   -9.2225 H         1 UNK         0.3040 
    121 H121       30.4955    3.0331   -8.6498 H         1 UNK         0.0766 
    122 H122       31.1210    3.2937  -11.6381 H         1 UNK         0.0812 
    123 H123       31.8398    4.2273  -10.3350 H         1 UNK         0.0812 
    124 H124       30.1339    4.4177  -10.7041 H         1 UNK         0.0812 
    125 H125       30.4480    0.2617   -8.5118 H         1 UNK         0.3205 
    126 H126       32.8265   -0.9282   -9.6282 H         1 UNK         0.0754 
    127 H127       32.1869   -2.8673   -8.2290 H         1 UNK         0.0769 
    128 H128       30.7839   -2.2397   -9.0799 H         1 UNK         0.0769 
    129 H129       31.0020   -1.8824   -7.3687 H         1 UNK         0.0769 
    130 H130       32.0289    0.4149   -6.4073 H         1 UNK         0.2981 
    131 H131       34.7771    1.1003   -5.9506 H         1 UNK         0.0541 
    132 H132       31.8845    2.3626   -6.0685 H         1 UNK         0.3459 
    133 H133       31.9503    3.3883   -4.6648 H         1 UNK         0.3459 
    134 H134       35.0555   -0.0533   -3.7444 H         1 UNK         0.0612 
    135 H135       35.0469   -1.1240   -5.1036 H         1 UNK         0.0612 
    136 H136       34.3045   -3.4836   -3.7551 H         1 UNK         0.0624 
    137 H137       33.7470   -3.0657   -5.3613 H         1 UNK         0.0624 
@<TRIPOS>BOND
     1    1    2 1    
     2    1   72 1    
     3    1   73 1    
     4    1   74 1    
     5    2    3 2    
     6    2    4 am   BACKBONE|DICT|INTERRES
     7    4    5 1    
     8    4   75 1    
     9    5    6 1    
    10    5   35 1    
    11    5   76 1    
    12    6    7 1    
    13    6   77 1    
    14    6   78 1    
    15    7    8 1    
    16    8    9 1    
    17    8   79 1    
    18    8   80 1    
    19    9   10 ar   
    20    9   14 ar   
    21   10   11 ar   
    22   10   81 1    
    23   11   12 ar   
    24   11   71 1    
    25   12   13 ar   
    26   12   82 1    
    27   13   14 ar   
    28   13   15 1    
    29   14   83 1    
    30   15   16 1    
    31   15   84 1    
    32   15   85 1    
    33   16   17 1    
    34   17   18 1    
    35   17   86 1    
    36   17   87 1    
    37   18   19 1    
    38   18   37 1    
    39   18   88 1    
    40   19   20 am   BACKBONE|DICT|INTERRES
    41   19   89 1    
    42   20   21 2    
    43   20   22 1    
    44   22   23 1    
    45   22   24 1    
    46   22   90 1    
    47   23   91 1    
    48   23   92 1    
    49   23   93 1    
    50   24   25 am   BACKBONE|DICT|INTERRES
    51   24   94 1    
    52   25   26 2    
    53   25   27 1    
    54   27   28 1    
    55   27   29 1    
    56   27   95 1    
    57   28   96 1    
    58   28   97 1    
    59   28   98 1    
    60   29   30 am   BACKBONE|DICT|INTERRES
    61   29   99 1    
    62   30   31 2    
    63   30   32 1    
    64   32   33 1    
    65   32   34 1    
    66   32  100 1    
    67   33  101 1    
    68   33  102 1    
    69   33  103 1    
    70   34   35 am   BACKBONE|DICT|INTERRES
    71   34  104 1    
    72   35   36 2    
    73   37   38 2    
    74   37   39 am   BACKBONE|DICT|INTERRES
    75   39   40 1    
    76   39  105 1    
    77   40   41 1    
    78   40   42 1    
    79   40  106 1    
    80   41  107 1    
    81   41  108 1    
    82   41  109 1    
    83   42   43 2    
    84   42   44 am   BACKBONE|DICT|INTERRES
    85   44   45 1    
    86   44  110 1    
    87   45   46 1    
    88   45   47 1    
    89   45  111 1    
    90   46  112 1    
    91   46  113 1    
    92   46  114 1    
    93   47   48 2    
    94   47   49 am   BACKBONE|DICT|INTERRES
    95   49   50 1    
    96   49  115 1    
    97   50   51 1    
    98   50   52 1    
    99   50  116 1    
   100   51  117 1    
   101   51  118 1    
   102   51  119 1    
   103   52   53 2    
   104   52   54 am   BACKBONE|DICT|INTERRES
   105   54   55 1    
   106   54  120 1    
   107   55   56 1    
   108   55   57 1    
   109   55  121 1    
   110   56  122 1    
   111   56  123 1    
   112   56  124 1    
   113   57   58 2    
   114   57   59 am   BACKBONE|DICT|INTERRES
   115   59   60 1    
   116   59  125 1    
   117   60   61 1    
   118   60   62 1    
   119   60  126 1    
   120   61  127 1    
   121   61  128 1    
   122   61  129 1    
   123   62   63 2    
   124   62   64 am   BACKBONE|DICT|INTERRES
   125   64   65 1    
   126   64  130 1    
   127   65   66 1    
   128   65   69 1    
   129   65  131 1    
   130   66   67 am   BACKBONE|DICT|INTERRES
   131   66   68 2    
   132   67  132 1    
   133   67  133 1    
   134   69   70 1    
   135   69  134 1    
   136   69  135 1    
   137   70   71 1    
   138   71  136 1    
   139   71  137 1    
@<TRIPOS>SUBSTRUCTURE
     1 UNK         1 GROUP             0       ****    0 ROOT    
