@<TRIPOS>MOLECULE
3R137
137   139    1
SMALL
USER_CHARGES


@<TRIPOS>ATOM
      1 CA         26.7640    1.1748    1.3765 C.3       0 UNK        -0.2020 
      2 C          26.9244   -0.3260    1.1822 C.2       0 UNK         0.4855 
      3 O          26.4348   -1.0997    2.0052 O.2       0 UNK        -0.5197 
      4 N          27.6185   -0.7239    0.1076 N.am      1 UNK        -0.4892 
      5 CA         27.8669   -2.0985   -0.3461 C.3       1 UNK         0.0835 
      6 C6         28.4931   -3.0101    0.7445 C.3       12 UNK        -0.0855 
      7 S7         29.4366   -4.4244    0.0760 S.3       12 UNK        -0.2931 
      8 C8         31.1058   -3.7225   -0.1479 C.3       12 UNK         0.0378 
      9 C9         31.2084   -2.9554   -1.4580 C.ar      12 UNK        -0.0802 
     10 C10        31.3216   -3.6538   -2.6648 C.ar      12 UNK        -0.0944 
     11 C11        31.3616   -2.9662   -3.8806 C.ar      12 UNK        -0.0787 
     12 C12        31.2774   -1.5716   -3.8843 C.ar      12 UNK        -0.0862 
     13 C13        31.1772   -0.8618   -2.6845 C.ar      12 UNK        -0.0733 
     14 C14        31.1663   -1.5568   -1.4712 C.ar      12 UNK        -0.0832 
     15 C15        31.0488    0.6544   -2.7102 C.3       12 UNK         0.0240 
     16 S16        29.3761    1.2294   -2.2585 S.3       12 UNK        -0.2522 
     17 C17        28.2837    0.2276   -3.3237 C.3       12 UNK        -0.0967 
     18 CA         28.2130    0.6965   -4.7993 C.3       5 UNK         0.0660 
     19 N          27.7526   -0.3856   -5.6710 N.am      5 UNK        -0.4015 
     20 C          27.8687   -0.4084   -7.0063 C.2       4 UNK         0.4946 
     21 O          28.4723    0.4476   -7.6532 O.2       4 UNK        -0.5353 
     22 CA         27.1924   -1.5690   -7.7625 C.3       4 UNK         0.0277 
     23 CB         28.2164   -2.6724   -8.0675 C.3       4 UNK        -0.1981 
     24 N          26.0468   -2.1556   -7.0609 N.am      4 UNK        -0.4209 
     25 C          24.9121   -1.5061   -6.7625 C.2       3 UNK         0.4942 
     26 O          24.6796   -0.3490   -7.1098 O.2       3 UNK        -0.5208 
     27 CA         23.8973   -2.2410   -5.8636 C.3       3 UNK         0.0250 
     28 CB         22.8644   -2.9855   -6.7238 C.3       3 UNK        -0.1990 
     29 N          24.4902   -3.1738   -4.8905 N.am      3 UNK        -0.4232 
     30 C          25.4491   -2.8623   -4.0056 C.2       2 UNK         0.4993 
     31 O          25.9749   -1.7483   -3.9525 O.2       2 UNK        -0.5286 
     32 CA         25.9422   -3.9915   -3.0787 C.3       2 UNK         0.0209 
     33 CB         26.6058   -5.1165   -3.8939 C.3       2 UNK        -0.1931 
     34 N          26.9203   -3.4987   -2.1049 N.am      2 UNK        -0.4546 
     35 C          26.6411   -2.7155   -1.0547 C.2       1 UNK         0.5154 
     36 O          25.4927   -2.4639   -0.6804 O.2       1 UNK        -0.5181 
     37 C          27.3092    1.9320   -4.9634 C.2       5 UNK         0.5014 
     38 O          27.8159    3.0357   -5.1648 O.2       5 UNK        -0.5248 
     39 N          25.9858    1.7111   -4.9190 N.am      6 UNK        -0.4434 
     40 CA         24.9582    2.7397   -5.1038 C.3       6 UNK         0.0363 
     41 CB         23.5805    2.1607   -4.7439 C.3       6 UNK        -0.1936 
     42 C          24.9505    3.3248   -6.5262 C.2       6 UNK         0.5081 
     43 O          24.7863    4.5345   -6.6846 O.2       6 UNK        -0.5248 
     44 N          25.1586    2.4626   -7.5303 N.am      7 UNK        -0.4718 
     45 CA         25.2928    2.8376   -8.9406 C.3       7 UNK         0.0273 
     46 CB         25.1070    1.5805   -9.8063 C.3       7 UNK        -0.1935 
     47 C          26.6331    3.5181   -9.2797 C.2       7 UNK         0.5018 
     48 O          26.7373    4.1086  -10.3555 O.2       7 UNK        -0.5186 
     49 N          27.6277    3.4033   -8.3841 N.am      8 UNK        -0.4240 
     50 CA         29.0212    3.8437   -8.5314 C.3       8 UNK         0.0235 
     51 CB         29.1138    5.3837   -8.5740 C.3       8 UNK        -0.2000 
     52 C          29.7223    3.1572   -9.7211 C.2       8 UNK         0.4941 
     53 O          30.4180    3.8113  -10.5001 O.2       8 UNK        -0.5273 
     54 N          29.5098    1.8404   -9.8392 N.am      9 UNK        -0.4262 
     55 CA         29.9870    0.9965  -10.9368 C.3       9 UNK         0.0264 
     56 CB         28.9129   -0.0636  -11.2375 C.3       9 UNK        -0.1955 
     57 C          31.3476    0.3360  -10.6480 C.2       9 UNK         0.5031 
     58 O          31.8150   -0.4451  -11.4785 O.2       9 UNK        -0.5390 
     59 N          31.9462    0.6226   -9.4796 N.am      10 UNK        -0.4204 
     60 CA         33.2482    0.1287   -9.0012 C.3       10 UNK         0.0237 
     61 CB         34.3953    0.7725   -9.8092 C.3       10 UNK        -0.1985 
     62 C          33.3404   -1.4114   -8.9575 C.2       10 UNK         0.4970 
     63 O          34.3861   -1.9795   -9.2777 O.2       10 UNK        -0.4914 
     64 N          32.2236   -2.0467   -8.5790 N.am      11 UNK        -0.4285 
     65 CA         32.0099   -3.5038   -8.5463 C.3       11 UNK         0.1007 
     66 C          31.9424   -4.1834   -9.9488 C.2       11 UNK         0.5703 
     67 N          31.8584   -3.4451  -11.0506 N.am      11 UNK        -0.7361 
     68 O          31.9278   -5.4086  -10.0413 O.2       11 UNK        -0.4986 
     69 C69        32.9464   -4.2644   -7.5576 C.3       12 UNK        -0.0947 
     70 S70        33.1328   -3.4755   -5.9219 S.3       12 UNK        -0.2240 
     71 C71        31.4841   -3.7193   -5.1952 C.3       12 UNK         0.0194 
     72 H72        25.7076    1.4421    1.3728 H         1 UNK         0.0906 
     73 H73        27.1886    1.4770    2.3335 H         1 UNK         0.0906 
     74 H74        27.2602    1.7452    0.5911 H         1 UNK         0.0906 
     75 H75        27.9819   -0.0118   -0.5125 H         1 UNK         0.3140 
     76 H76        28.6102   -1.9672   -1.1280 H         1 UNK         0.1085 
     77 H77        27.7200   -3.3952    1.4118 H         1 UNK         0.0836 
     78 H78        29.1628   -2.4283    1.3796 H         1 UNK         0.0836 
     79 H79        31.8309   -4.5378   -0.1528 H         1 UNK         0.0731 
     80 H80        31.3675   -3.0903    0.7019 H         1 UNK         0.0731 
     81 H81        31.3648   -4.7346   -2.6552 H         1 UNK         0.1312 
     82 H82        31.2903   -1.0408   -4.8266 H         1 UNK         0.1406 
     83 H83        31.0779   -1.0091   -0.5424 H         1 UNK         0.1631 
     84 H84        31.3021    1.0465   -3.6963 H         1 UNK         0.0717 
     85 H85        31.7704    1.0898   -2.0175 H         1 UNK         0.0717 
     86 H86        28.6095   -0.8111   -3.2790 H         1 UNK         0.0934 
     87 H87        27.2914    0.2224   -2.8686 H         1 UNK         0.0934 
     88 H88        29.2184    0.9696   -5.1265 H         1 UNK         0.0739 
     89 H89        27.1899   -1.0981   -5.2128 H         1 UNK         0.3093 
     90 H90        26.8286   -1.1692   -8.7105 H         1 UNK         0.0818 
     91 H91        29.0755   -2.2685   -8.6026 H         1 UNK         0.0819 
     92 H92        27.7851   -3.4513   -8.6967 H         1 UNK         0.0819 
     93 H93        28.5869   -3.1430   -7.1562 H         1 UNK         0.0819 
     94 H94        26.1476   -3.1062   -6.7369 H         1 UNK         0.3041 
     95 H95        23.3720   -1.4747   -5.2899 H         1 UNK         0.0784 
     96 H96        22.3940   -2.3105   -7.4406 H         1 UNK         0.0793 
     97 H97        23.3206   -3.7974   -7.2917 H         1 UNK         0.0793 
     98 H98        22.0676   -3.4086   -6.1117 H         1 UNK         0.0793 
     99 H99        24.1141   -4.1114   -4.8852 H         1 UNK         0.3024 
    100 H100       25.0804   -4.3917   -2.5397 H         1 UNK         0.1171 
    101 H101       26.9745   -5.9100   -3.2431 H         1 UNK         0.0786 
    102 H102       25.9023   -5.5784   -4.5875 H         1 UNK         0.0786 
    103 H103       27.4494   -4.7483   -4.4797 H         1 UNK         0.0786 
    104 H104       27.8905   -3.6674   -2.3286 H         1 UNK         0.2977 
    105 H105       25.6601    0.7644   -4.7790 H         1 UNK         0.3127 
    106 H106       25.1766    3.5562   -4.4120 H         1 UNK         0.0770 
    107 H107       23.3079    1.3280   -5.3933 H         1 UNK         0.0814 
    108 H108       22.8025    2.9188   -4.8439 H         1 UNK         0.0814 
    109 H109       23.5551    1.8058   -3.7135 H         1 UNK         0.0814 
    110 H110       25.1893    1.4675   -7.3176 H         1 UNK         0.2983 
    111 H111       24.4971    3.5449   -9.1848 H         1 UNK         0.0947 
    112 H112       25.1391    1.8273  -10.8684 H         1 UNK         0.0806 
    113 H113       24.1464    1.1024   -9.6133 H         1 UNK         0.0806 
    114 H114       25.8906    0.8463   -9.6188 H         1 UNK         0.0806 
    115 H115       27.4257    2.8956   -7.5326 H         1 UNK         0.3000 
    116 H116       29.5415    3.5068   -7.6333 H         1 UNK         0.0850 
    117 H117       30.1537    5.7122   -8.5617 H         1 UNK         0.0810 
    118 H118       28.6219    5.8329   -7.7111 H         1 UNK         0.0810 
    119 H119       28.6547    5.7942   -9.4738 H         1 UNK         0.0810 
    120 H120       28.9815    1.3701   -9.1030 H         1 UNK         0.3040 
    121 H121       30.1147    1.6078  -11.8326 H         1 UNK         0.0766 
    122 H122       27.9581    0.4006  -11.4853 H         1 UNK         0.0812 
    123 H123       28.7517   -0.7263  -10.3884 H         1 UNK         0.0812 
    124 H124       29.1984   -0.6852  -12.0873 H         1 UNK         0.0812 
    125 H125       31.4605    1.2573   -8.8616 H         1 UNK         0.3205 
    126 H126       33.3450    0.4641   -7.9675 H         1 UNK         0.0754 
    127 H127       35.3673    0.5117   -9.3885 H         1 UNK         0.0769 
    128 H128       34.3230    1.8601   -9.8028 H         1 UNK         0.0769 
    129 H129       34.3909    0.4427  -10.8488 H         1 UNK         0.0769 
    130 H130       31.4194   -1.4831   -8.3508 H         1 UNK         0.2981 
    131 H131       30.9986   -3.6232   -8.1624 H         1 UNK         0.0541 
    132 H132       31.8819   -2.4321  -11.0156 H         1 UNK         0.3459 
    133 H133       31.8029   -3.9089  -11.9430 H         1 UNK         0.3459 
    134 H134       32.5877   -5.2833   -7.4020 H         1 UNK         0.0612 
    135 H135       33.9448   -4.3606   -7.9872 H         1 UNK         0.0612 
    136 H136       30.7182   -3.3563   -5.8799 H         1 UNK         0.0624 
    137 H137       31.3035   -4.7863   -5.0561 H         1 UNK         0.0624 
@<TRIPOS>BOND
     1    1    2 1    
     2    1   72 1    
     3    1   73 1    
     4    1   74 1    
     5    2    3 2    
     6    2    4 am   BACKBONE|DICT|INTERRES
     7    4    5 1    
     8    4   75 1    
     9    5    6 1    
    10    5   35 1    
    11    5   76 1    
    12    6    7 1    
    13    6   77 1    
    14    6   78 1    
    15    7    8 1    
    16    8    9 1    
    17    8   79 1    
    18    8   80 1    
    19    9   10 ar   
    20    9   14 ar   
    21   10   11 ar   
    22   10   81 1    
    23   11   12 ar   
    24   11   71 1    
    25   12   13 ar   
    26   12   82 1    
    27   13   14 ar   
    28   13   15 1    
    29   14   83 1    
    30   15   16 1    
    31   15   84 1    
    32   15   85 1    
    33   16   17 1    
    34   17   18 1    
    35   17   86 1    
    36   17   87 1    
    37   18   19 1    
    38   18   37 1    
    39   18   88 1    
    40   19   20 am   BACKBONE|DICT|INTERRES
    41   19   89 1    
    42   20   21 2    
    43   20   22 1    
    44   22   23 1    
    45   22   24 1    
    46   22   90 1    
    47   23   91 1    
    48   23   92 1    
    49   23   93 1    
    50   24   25 am   BACKBONE|DICT|INTERRES
    51   24   94 1    
    52   25   26 2    
    53   25   27 1    
    54   27   28 1    
    55   27   29 1    
    56   27   95 1    
    57   28   96 1    
    58   28   97 1    
    59   28   98 1    
    60   29   30 am   BACKBONE|DICT|INTERRES
    61   29   99 1    
    62   30   31 2    
    63   30   32 1    
    64   32   33 1    
    65   32   34 1    
    66   32  100 1    
    67   33  101 1    
    68   33  102 1    
    69   33  103 1    
    70   34   35 am   BACKBONE|DICT|INTERRES
    71   34  104 1    
    72   35   36 2    
    73   37   38 2    
    74   37   39 am   BACKBONE|DICT|INTERRES
    75   39   40 1    
    76   39  105 1    
    77   40   41 1    
    78   40   42 1    
    79   40  106 1    
    80   41  107 1    
    81   41  108 1    
    82   41  109 1    
    83   42   43 2    
    84   42   44 am   BACKBONE|DICT|INTERRES
    85   44   45 1    
    86   44  110 1    
    87   45   46 1    
    88   45   47 1    
    89   45  111 1    
    90   46  112 1    
    91   46  113 1    
    92   46  114 1    
    93   47   48 2    
    94   47   49 am   BACKBONE|DICT|INTERRES
    95   49   50 1    
    96   49  115 1    
    97   50   51 1    
    98   50   52 1    
    99   50  116 1    
   100   51  117 1    
   101   51  118 1    
   102   51  119 1    
   103   52   53 2    
   104   52   54 am   BACKBONE|DICT|INTERRES
   105   54   55 1    
   106   54  120 1    
   107   55   56 1    
   108   55   57 1    
   109   55  121 1    
   110   56  122 1    
   111   56  123 1    
   112   56  124 1    
   113   57   58 2    
   114   57   59 am   BACKBONE|DICT|INTERRES
   115   59   60 1    
   116   59  125 1    
   117   60   61 1    
   118   60   62 1    
   119   60  126 1    
   120   61  127 1    
   121   61  128 1    
   122   61  129 1    
   123   62   63 2    
   124   62   64 am   BACKBONE|DICT|INTERRES
   125   64   65 1    
   126   64  130 1    
   127   65   66 1    
   128   65   69 1    
   129   65  131 1    
   130   66   67 am   BACKBONE|DICT|INTERRES
   131   66   68 2    
   132   67  132 1    
   133   67  133 1    
   134   69   70 1    
   135   69  134 1    
   136   69  135 1    
   137   70   71 1    
   138   71  136 1    
   139   71  137 1    
@<TRIPOS>SUBSTRUCTURE
     1 UNK         1 GROUP             0       ****    0 ROOT    
