@<TRIPOS>MOLECULE
3R137
137   139    1
SMALL
USER_CHARGES


@<TRIPOS>ATOM
      1 CA         28.3925   -0.2739    4.2291 C.3       0 UNK        -0.2020 
      2 C          28.9180   -0.3837    2.8056 C.2       0 UNK         0.4855 
      3 O          29.6904    0.4708    2.3713 O.2       0 UNK        -0.5197 
      4 N          28.5075   -1.4307    2.0771 N.am      1 UNK        -0.4892 
      5 CA         28.8924   -1.6825    0.6811 C.3       1 UNK         0.0835 
      6 C6         28.5823   -3.1497    0.2763 C.3       12 UNK        -0.0855 
      7 S7         29.6762   -3.7777   -1.0421 S.3       12 UNK        -0.2931 
      8 C8         28.5792   -3.6591   -2.4952 C.3       12 UNK         0.0378 
      9 C9         29.2922   -3.9628   -3.8115 C.ar      12 UNK        -0.0802 
     10 C10        30.5363   -3.3905   -4.1101 C.ar      12 UNK        -0.0944 
     11 C11        31.1854   -3.6825   -5.3135 C.ar      12 UNK        -0.0787 
     12 C12        30.5662   -4.5271   -6.2401 C.ar      12 UNK        -0.0862 
     13 C13        29.3189   -5.0947   -5.9639 C.ar      12 UNK        -0.0733 
     14 C14        28.6896   -4.8106   -4.7472 C.ar      12 UNK        -0.0832 
     15 C15        28.6796   -6.0581   -6.9572 C.3       12 UNK         0.0240 
     16 S16        27.9849   -5.2174   -8.4171 S.3       12 UNK        -0.2522 
     17 C17        26.5413   -4.3535   -7.7072 C.3       12 UNK        -0.0967 
     18 CA         26.3302   -2.9261   -8.2724 C.3       5 UNK         0.0660 
     19 N          25.0633   -2.3589   -7.8037 N.am      5 UNK        -0.4015 
     20 C          24.5317   -1.1933   -8.2025 C.2       4 UNK         0.4946 
     21 O          25.0026   -0.4891   -9.0945 O.2       4 UNK        -0.5353 
     22 CA         23.2964   -0.7031   -7.4246 C.3       4 UNK         0.0277 
     23 CB         22.0068   -1.2693   -8.0397 C.3       4 UNK        -0.1981 
     24 N          23.3592   -1.0418   -5.9967 N.am      4 UNK        -0.4209 
     25 C          24.2958   -0.5761   -5.1592 C.2       3 UNK         0.4942 
     26 O          25.1540    0.2500   -5.4819 O.2       3 UNK        -0.5208 
     27 CA         24.3349   -1.1968   -3.7596 C.3       3 UNK         0.0250 
     28 CB         24.9677   -2.6053   -3.8231 C.3       3 UNK        -0.1990 
     29 N          25.1227   -0.3241   -2.8928 N.am      3 UNK        -0.4232 
     30 C          25.2359   -0.4338   -1.5663 C.2       2 UNK         0.4993 
     31 O          24.6393   -1.2766   -0.8909 O.2       2 UNK        -0.5286 
     32 CA         26.1716    0.5586   -0.8633 C.3       2 UNK         0.0209 
     33 CB         25.3693    1.5911   -0.0541 C.3       2 UNK        -0.1931 
     34 N          27.0395   -0.1953    0.0391 N.am      2 UNK        -0.4546 
     35 C          28.2413   -0.6807   -0.2999 C.2       1 UNK         0.5154 
     36 O          28.8268   -0.3758   -1.3395 O.2       1 UNK        -0.5181 
     37 C          27.5149   -1.9857   -7.9655 C.2       5 UNK         0.5014 
     38 O          28.2927   -1.6835   -8.8705 O.2       5 UNK        -0.5248 
     39 N          27.5931   -1.4965   -6.7176 N.am      6 UNK        -0.4434 
     40 CA         28.6092   -0.5429   -6.2688 C.3       6 UNK         0.0363 
     41 CB         28.5009   -0.3136   -4.7539 C.3       6 UNK        -0.1936 
     42 C          28.5332    0.7962   -7.0108 C.2       6 UNK         0.5081 
     43 O          29.5740    1.3265   -7.3937 O.2       6 UNK        -0.5248 
     44 N          27.3107    1.3013   -7.2246 N.am      7 UNK        -0.4718 
     45 CA         27.0433    2.5153   -7.9971 C.3       7 UNK         0.0273 
     46 CB         25.5605    2.8969   -7.8646 C.3       7 UNK        -0.1935 
     47 C          27.4496    2.3811   -9.4748 C.2       7 UNK         0.5018 
     48 O          28.0757    3.2963  -10.0097 O.2       7 UNK        -0.5186 
     49 N          27.1117    1.2421  -10.0968 N.am      8 UNK        -0.4240 
     50 CA         27.4565    0.9183  -11.4831 C.3       8 UNK         0.0235 
     51 CB         26.6695   -0.3219  -11.9370 C.3       8 UNK        -0.2000 
     52 C          28.9653    0.7127  -11.6963 C.2       8 UNK         0.4941 
     53 O          29.5156    1.2453  -12.6609 O.2       8 UNK        -0.5273 
     54 N          29.6070   -0.0483  -10.7993 N.am      9 UNK        -0.4262 
     55 CA         31.0406   -0.3519  -10.8460 C.3       9 UNK         0.0264 
     56 CB         31.3004   -1.6401  -10.0498 C.3       9 UNK        -0.1955 
     57 C          31.9401    0.7925  -10.3403 C.2       9 UNK         0.5031 
     58 O          33.1470    0.7443  -10.5829 O.2       9 UNK        -0.5390 
     59 N          31.3519    1.7817   -9.6508 N.am      10 UNK        -0.4204 
     60 CA         31.9950    2.9177   -8.9789 C.3       10 UNK         0.0237 
     61 CB         32.6977    3.8483   -9.9909 C.3       10 UNK        -0.1985 
     62 C          32.9056    2.4655   -7.8200 C.2       10 UNK         0.4970 
     63 O          34.0360    2.9414   -7.6942 O.2       10 UNK        -0.4914 
     64 N          32.3896    1.5430   -6.9998 N.am      11 UNK        -0.4285 
     65 CA         33.0491    1.0137   -5.7983 C.3       11 UNK         0.1007 
     66 C          33.0757    2.0513   -4.6438 C.2       11 UNK         0.5703 
     67 N          34.0955    2.0095   -3.7974 N.am      11 UNK        -0.7361 
     68 O          32.1688    2.8658   -4.4847 O.2       11 UNK        -0.4986 
     69 C69        32.4048   -0.3178   -5.3310 C.3       12 UNK        -0.0947 
     70 S70        32.5457   -1.6228   -6.5962 S.3       12 UNK        -0.2240 
     71 C71        32.5802   -3.1393   -5.5938 C.3       12 UNK         0.0194 
     72 H72        27.8720    0.6737    4.3646 H         1 UNK         0.0906 
     73 H73        27.6994   -1.0787    4.4729 H         1 UNK         0.0906 
     74 H74        29.2192   -0.3124    4.9380 H         1 UNK         0.0906 
     75 H75        27.8814   -2.1067    2.4927 H         1 UNK         0.3140 
     76 H76        29.9726   -1.5294    0.6179 H         1 UNK         0.1085 
     77 H77        28.7415   -3.8094    1.1311 H         1 UNK         0.0836 
     78 H78        27.5334   -3.2813    0.0011 H         1 UNK         0.0836 
     79 H79        28.1466   -2.6614   -2.5478 H         1 UNK         0.0731 
     80 H80        27.7433   -4.3448   -2.3472 H         1 UNK         0.0731 
     81 H81        31.0095   -2.7317   -3.3949 H         1 UNK         0.1312 
     82 H82        31.0639   -4.7573   -7.1725 H         1 UNK         0.1406 
     83 H83        27.7312   -5.2598   -4.5244 H         1 UNK         0.1631 
     84 H84        27.8982   -6.6501   -6.4781 H         1 UNK         0.0717 
     85 H85        29.4328   -6.7719   -7.2940 H         1 UNK         0.0717 
     86 H86        25.6651   -4.9673   -7.9229 H         1 UNK         0.0934 
     87 H87        26.6207   -4.3240   -6.6202 H         1 UNK         0.0934 
     88 H88        26.2557   -3.0035   -9.3594 H         1 UNK         0.0739 
     89 H89        24.5810   -2.8723   -7.0824 H         1 UNK         0.3093 
     90 H90        23.2654    0.3853   -7.5086 H         1 UNK         0.0818 
     91 H91        21.1219   -0.8648   -7.5481 H         1 UNK         0.0819 
     92 H92        21.9341   -1.0094   -9.0969 H         1 UNK         0.0819 
     93 H93        21.9640   -2.3568   -7.9682 H         1 UNK         0.0819 
     94 H94        22.6797   -1.7067   -5.6538 H         1 UNK         0.3041 
     95 H95        23.3158   -1.2582   -3.3722 H         1 UNK         0.0784 
     96 H96        24.4205   -3.2592   -4.5028 H         1 UNK         0.0793 
     97 H97        26.0032   -2.5681   -4.1624 H         1 UNK         0.0793 
     98 H98        24.9594   -3.0932   -2.8484 H         1 UNK         0.0793 
     99 H99        25.5971    0.4180   -3.3940 H         1 UNK         0.3024 
    100 H100       26.7712    1.0893   -1.6070 H         1 UNK         0.1171 
    101 H101       26.0296    2.2906    0.4589 H         1 UNK         0.0786 
    102 H102       24.7196    2.1766   -0.7059 H         1 UNK         0.0786 
    103 H103       24.7362    1.1161    0.6968 H         1 UNK         0.0786 
    104 H104       26.6164   -0.5257    0.8943 H         1 UNK         0.2977 
    105 H105       26.8847   -1.7499   -6.0484 H         1 UNK         0.3127 
    106 H106       29.5837   -0.9850   -6.4829 H         1 UNK         0.0770 
    107 H107       27.5134    0.0337   -4.4588 H         1 UNK         0.0814 
    108 H108       29.2133    0.4394   -4.4149 H         1 UNK         0.0814 
    109 H109       28.7161   -1.2232   -4.2016 H         1 UNK         0.0814 
    110 H110       26.5105    0.8231   -6.8208 H         1 UNK         0.2983 
    111 H111       27.6416    3.3196   -7.5631 H         1 UNK         0.0947 
    112 H112       25.3502    3.8297   -8.3893 H         1 UNK         0.0806 
    113 H113       25.2794    3.0398   -6.8209 H         1 UNK         0.0806 
    114 H114       24.9066    2.1323   -8.2843 H         1 UNK         0.0806 
    115 H115       26.5492    0.5589   -9.5947 H         1 UNK         0.3000 
    116 H116       27.1477    1.7602  -12.1065 H         1 UNK         0.0850 
    117 H117       26.9036   -0.5783  -12.9711 H         1 UNK         0.0810 
    118 H118       25.5944   -0.1499  -11.8806 H         1 UNK         0.0810 
    119 H119       26.8991   -1.1933  -11.3224 H         1 UNK         0.0810 
    120 H120       29.0721   -0.4986  -10.0565 H         1 UNK         0.3040 
    121 H121       31.3199   -0.5403  -11.8848 H         1 UNK         0.0766 
    122 H122       30.9754   -1.5374   -9.0148 H         1 UNK         0.0812 
    123 H123       32.3611   -1.8944  -10.0378 H         1 UNK         0.0812 
    124 H124       30.7665   -2.4872  -10.4806 H         1 UNK         0.0812 
    125 H125       30.3652    1.6752   -9.4477 H         1 UNK         0.3205 
    126 H126       31.1862    3.4886   -8.5200 H         1 UNK         0.0754 
    127 H127       33.0553    4.7551   -9.5017 H         1 UNK         0.0769 
    128 H128       32.0165    4.1553  -10.7845 H         1 UNK         0.0769 
    129 H129       33.5604    3.3695  -10.4550 H         1 UNK         0.0769 
    130 H130       31.4204    1.2699   -7.1403 H         1 UNK         0.2981 
    131 H131       34.0861    0.8029   -6.0680 H         1 UNK         0.0541 
    132 H132       34.8400    1.3401   -3.9106 H         1 UNK         0.3459 
    133 H133       34.1246    2.6659   -3.0330 H         1 UNK         0.3459 
    134 H134       31.3538   -0.1760   -5.0854 H         1 UNK         0.0612 
    135 H135       32.8877   -0.6672   -4.4170 H         1 UNK         0.0612 
    136 H136       33.1553   -3.8917   -6.1354 H         1 UNK         0.0624 
    137 H137       33.1219   -2.9665   -4.6630 H         1 UNK         0.0624 
@<TRIPOS>BOND
     1    1    2 1    
     2    1   72 1    
     3    1   73 1    
     4    1   74 1    
     5    2    3 2    
     6    2    4 am   BACKBONE|DICT|INTERRES
     7    4    5 1    
     8    4   75 1    
     9    5    6 1    
    10    5   35 1    
    11    5   76 1    
    12    6    7 1    
    13    6   77 1    
    14    6   78 1    
    15    7    8 1    
    16    8    9 1    
    17    8   79 1    
    18    8   80 1    
    19    9   10 ar   
    20    9   14 ar   
    21   10   11 ar   
    22   10   81 1    
    23   11   12 ar   
    24   11   71 1    
    25   12   13 ar   
    26   12   82 1    
    27   13   14 ar   
    28   13   15 1    
    29   14   83 1    
    30   15   16 1    
    31   15   84 1    
    32   15   85 1    
    33   16   17 1    
    34   17   18 1    
    35   17   86 1    
    36   17   87 1    
    37   18   19 1    
    38   18   37 1    
    39   18   88 1    
    40   19   20 am   BACKBONE|DICT|INTERRES
    41   19   89 1    
    42   20   21 2    
    43   20   22 1    
    44   22   23 1    
    45   22   24 1    
    46   22   90 1    
    47   23   91 1    
    48   23   92 1    
    49   23   93 1    
    50   24   25 am   BACKBONE|DICT|INTERRES
    51   24   94 1    
    52   25   26 2    
    53   25   27 1    
    54   27   28 1    
    55   27   29 1    
    56   27   95 1    
    57   28   96 1    
    58   28   97 1    
    59   28   98 1    
    60   29   30 am   BACKBONE|DICT|INTERRES
    61   29   99 1    
    62   30   31 2    
    63   30   32 1    
    64   32   33 1    
    65   32   34 1    
    66   32  100 1    
    67   33  101 1    
    68   33  102 1    
    69   33  103 1    
    70   34   35 am   BACKBONE|DICT|INTERRES
    71   34  104 1    
    72   35   36 2    
    73   37   38 2    
    74   37   39 am   BACKBONE|DICT|INTERRES
    75   39   40 1    
    76   39  105 1    
    77   40   41 1    
    78   40   42 1    
    79   40  106 1    
    80   41  107 1    
    81   41  108 1    
    82   41  109 1    
    83   42   43 2    
    84   42   44 am   BACKBONE|DICT|INTERRES
    85   44   45 1    
    86   44  110 1    
    87   45   46 1    
    88   45   47 1    
    89   45  111 1    
    90   46  112 1    
    91   46  113 1    
    92   46  114 1    
    93   47   48 2    
    94   47   49 am   BACKBONE|DICT|INTERRES
    95   49   50 1    
    96   49  115 1    
    97   50   51 1    
    98   50   52 1    
    99   50  116 1    
   100   51  117 1    
   101   51  118 1    
   102   51  119 1    
   103   52   53 2    
   104   52   54 am   BACKBONE|DICT|INTERRES
   105   54   55 1    
   106   54  120 1    
   107   55   56 1    
   108   55   57 1    
   109   55  121 1    
   110   56  122 1    
   111   56  123 1    
   112   56  124 1    
   113   57   58 2    
   114   57   59 am   BACKBONE|DICT|INTERRES
   115   59   60 1    
   116   59  125 1    
   117   60   61 1    
   118   60   62 1    
   119   60  126 1    
   120   61  127 1    
   121   61  128 1    
   122   61  129 1    
   123   62   63 2    
   124   62   64 am   BACKBONE|DICT|INTERRES
   125   64   65 1    
   126   64  130 1    
   127   65   66 1    
   128   65   69 1    
   129   65  131 1    
   130   66   67 am   BACKBONE|DICT|INTERRES
   131   66   68 2    
   132   67  132 1    
   133   67  133 1    
   134   69   70 1    
   135   69  134 1    
   136   69  135 1    
   137   70   71 1    
   138   71  136 1    
   139   71  137 1    
@<TRIPOS>SUBSTRUCTURE
     1 UNK         1 GROUP             0       ****    0 ROOT    
