@<TRIPOS>MOLECULE
3R137
137   139    1
SMALL
USER_CHARGES


@<TRIPOS>ATOM
      1 CA         25.1411   -5.1457    1.3503 C.3       0 UNK        -0.2020 
      2 C          25.6937   -5.6120    0.0060 C.2       0 UNK         0.4855 
      3 O          25.2455   -6.6346   -0.5079 O.2       0 UNK        -0.5197 
      4 N          26.6609   -4.9110   -0.6033 N.am      1 UNK        -0.4892 
      5 CA         27.2888   -3.6623   -0.1379 C.3       1 UNK         0.0835 
      6 C6         28.6398   -3.4016   -0.8475 C.3       12 UNK        -0.0855 
      7 S7         29.8100   -4.7871   -0.6444 S.3       12 UNK        -0.2931 
      8 C8         31.3318   -4.0801   -1.3661 C.3       12 UNK         0.0378 
      9 C9         31.2531   -3.7201   -2.8515 C.ar      12 UNK        -0.0802 
     10 C10        32.1601   -2.7826   -3.3593 C.ar      12 UNK        -0.0944 
     11 C11        32.1499   -2.4364   -4.7130 C.ar      12 UNK        -0.0787 
     12 C12        31.1958   -3.0122   -5.5544 C.ar      12 UNK        -0.0862 
     13 C13        30.2861   -3.9569   -5.0749 C.ar      12 UNK        -0.0733 
     14 C14        30.3358   -4.3225   -3.7259 C.ar      12 UNK        -0.0832 
     15 C15        29.3091   -4.6118   -6.0501 C.3       12 UNK         0.0240 
     16 S16        27.6123   -4.8397   -5.4141 S.3       12 UNK        -0.2522 
     17 C17        27.0867   -3.1482   -4.9883 C.3       12 UNK        -0.0967 
     18 CA         26.7547   -2.2547   -6.2198 C.3       5 UNK         0.0660 
     19 N          25.5102   -1.5006   -6.0319 N.am      5 UNK        -0.4015 
     20 C          24.8844   -0.7929   -6.9858 C.2       4 UNK         0.4946 
     21 O          25.2532   -0.7473   -8.1584 O.2       4 UNK        -0.5353 
     22 CA         23.6631    0.0408   -6.5566 C.3       4 UNK         0.0277 
     23 CB         22.3814   -0.8039   -6.6339 C.3       4 UNK        -0.1981 
     24 N          23.7940    0.6095   -5.2129 N.am      4 UNK        -0.4209 
     25 C          24.7262    1.5029   -4.8490 C.2       3 UNK         0.4942 
     26 O          25.5314    2.0044   -5.6304 O.2       3 UNK        -0.5208 
     27 CA         24.8190    1.8515   -3.3527 C.3       3 UNK         0.0250 
     28 CB         23.9679    3.0911   -3.0359 C.3       3 UNK        -0.1990 
     29 N          24.4348    0.7494   -2.4621 N.am      3 UNK        -0.4232 
     30 C          25.0215   -0.4556   -2.4376 C.2       2 UNK         0.4993 
     31 O          25.9532   -0.7799   -3.1803 O.2       2 UNK        -0.5286 
     32 CA         24.3973   -1.4921   -1.4913 C.3       2 UNK         0.0209 
     33 CB         23.1565   -2.1262   -2.1432 C.3       2 UNK        -0.1931 
     34 N          25.3429   -2.5566   -1.1603 N.am      2 UNK        -0.4546 
     35 C          26.3660   -2.4356   -0.3040 C.2       1 UNK         0.5154 
     36 O          26.5858   -1.4188    0.3556 O.2       1 UNK        -0.5181 
     37 C          27.9116   -1.2870   -6.5264 C.2       5 UNK         0.5014 
     38 O          28.6390   -1.4750   -7.5049 O.2       5 UNK        -0.5248 
     39 N          28.0219   -0.2436   -5.6905 N.am      6 UNK        -0.4434 
     40 CA         29.0312    0.8036   -5.8100 C.3       6 UNK         0.0363 
     41 CB         29.0038    1.7085   -4.5699 C.3       6 UNK        -0.1936 
     42 C          28.9064    1.6215   -7.1019 C.2       6 UNK         0.5081 
     43 O          29.9273    1.9224   -7.7192 O.2       6 UNK        -0.5248 
     44 N          27.6680    1.9353   -7.5042 N.am      7 UNK        -0.4718 
     45 CA         27.3452    2.6080   -8.7622 C.3       7 UNK         0.0273 
     46 CB         25.8664    3.0258   -8.7613 C.3       7 UNK        -0.1935 
     47 C          27.6644    1.7503   -9.9966 C.2       7 UNK         0.5018 
     48 O          28.2087    2.2822  -10.9641 O.2       7 UNK        -0.5186 
     49 N          27.3424    0.4481   -9.9415 N.am      8 UNK        -0.4240 
     50 CA         27.6093   -0.5154  -11.0142 C.3       8 UNK         0.0235 
     51 CB         26.9072   -1.8495  -10.7133 C.3       8 UNK        -0.2000 
     52 C          29.1092   -0.7363  -11.2635 C.2       8 UNK         0.4941 
     53 O          29.5316   -0.7511  -12.4205 O.2       8 UNK        -0.5273 
     54 N          29.8871   -0.8861  -10.1825 N.am      9 UNK        -0.4262 
     55 CA         31.3455   -1.0290  -10.2449 C.3       9 UNK         0.0264 
     56 CB         31.8362   -1.6894   -8.9524 C.3       9 UNK        -0.1955 
     57 C          32.0870    0.3008  -10.4646 C.2       9 UNK         0.5031 
     58 O          33.2499    0.2727  -10.8697 O.2       9 UNK        -0.5390 
     59 N          31.4208    1.4243  -10.1627 N.am      10 UNK        -0.4204 
     60 CA         31.9388    2.7957  -10.1317 C.3       10 UNK         0.0237 
     61 CB         32.3880    3.2620  -11.5334 C.3       10 UNK        -0.1985 
     62 C          33.0110    3.0057   -9.0420 C.2       10 UNK         0.4970 
     63 O          33.9147    3.8229   -9.2287 O.2       10 UNK        -0.4914 
     64 N          32.8844    2.2815   -7.9201 N.am      11 UNK        -0.4285 
     65 CA         33.7306    2.4387   -6.7258 C.3       11 UNK         0.1007 
     66 C          33.2027    3.5057   -5.7226 C.2       11 UNK         0.5703 
     67 N          31.9950    4.0349   -5.8903 N.am      11 UNK        -0.7361 
     68 O          33.9116    3.8760   -4.7897 O.2       11 UNK        -0.4986 
     69 C69        34.0584    1.0784   -6.0488 C.3       12 UNK        -0.0947 
     70 S70        32.6299    0.2364   -5.2878 S.3       12 UNK        -0.2240 
     71 C71        33.1998   -1.4877   -5.2792 C.3       12 UNK         0.0194 
     72 H72        24.6079   -4.2013    1.2493 H         1 UNK         0.0906 
     73 H73        24.4383   -5.8787    1.7461 H         1 UNK         0.0906 
     74 H74        25.9366   -5.0280    2.0850 H         1 UNK         0.0906 
     75 H75        27.0337   -5.2721   -1.4700 H         1 UNK         0.3140 
     76 H76        27.4975   -3.7573    0.9293 H         1 UNK         0.1085 
     77 H77        28.4829   -3.2224   -1.9126 H         1 UNK         0.0836 
     78 H78        29.1106   -2.4988   -0.4522 H         1 UNK         0.0836 
     79 H79        31.6045   -3.1966   -0.7865 H         1 UNK         0.0731 
     80 H80        32.1411   -4.7985   -1.2307 H         1 UNK         0.0731 
     81 H81        32.8933   -2.3342   -2.7024 H         1 UNK         0.1312 
     82 H82        31.1750   -2.7443   -6.5968 H         1 UNK         0.1406 
     83 H83        29.6530   -5.0776   -3.3633 H         1 UNK         0.1631 
     84 H84        29.7054   -5.5910   -6.3211 H         1 UNK         0.0717 
     85 H85        29.2528   -4.0439   -6.9795 H         1 UNK         0.0717 
     86 H86        26.1983   -3.2727   -4.3672 H         1 UNK         0.0934 
     87 H87        27.8228   -2.6953   -4.3204 H         1 UNK         0.0934 
     88 H88        26.6106   -2.8874   -7.0984 H         1 UNK         0.0739 
     89 H89        25.1962   -1.4051   -5.0748 H         1 UNK         0.3093 
     90 H90        23.5684    0.8706   -7.2601 H         1 UNK         0.0818 
     91 H91        21.4968   -0.2038   -6.4199 H         1 UNK         0.0819 
     92 H92        22.2516   -1.2228   -7.6330 H         1 UNK         0.0819 
     93 H93        22.4010   -1.6379   -5.9312 H         1 UNK         0.0819 
     94 H94        23.1607    0.2659   -4.5062 H         1 UNK         0.3041 
     95 H95        25.8633    2.0910   -3.1417 H         1 UNK         0.0784 
     96 H96        24.2513    3.9310   -3.6722 H         1 UNK         0.0793 
     97 H97        22.9051    2.9052   -3.1963 H         1 UNK         0.0793 
     98 H98        24.1018    3.4119   -2.0026 H         1 UNK         0.0793 
     99 H99        23.6659    0.9297   -1.8319 H         1 UNK         0.3024 
    100 H100       24.1004   -0.9895   -0.5676 H         1 UNK         0.1171 
    101 H101       22.3976   -1.3748   -2.3653 H         1 UNK         0.0786 
    102 H102       22.6944   -2.8599   -1.4822 H         1 UNK         0.0786 
    103 H103       23.4025   -2.6290   -3.0796 H         1 UNK         0.0786 
    104 H104       25.2572   -3.4215   -1.6737 H         1 UNK         0.2977 
    105 H105       27.3723   -0.1726   -4.9169 H         1 UNK         0.3127 
    106 H106       29.9903    0.2939   -5.8476 H         1 UNK         0.0770 
    107 H107       28.0574    2.2420   -4.4786 H         1 UNK         0.0814 
    108 H108       29.7973    2.4552   -4.6189 H         1 UNK         0.0814 
    109 H109       29.1581    1.1339   -3.6565 H         1 UNK         0.0814 
    110 H110       26.8879    1.7262   -6.8847 H         1 UNK         0.2983 
    111 H111       27.9552    3.5121   -8.8215 H         1 UNK         0.0947 
    112 H112       25.6075    3.5511   -9.6816 H         1 UNK         0.0806 
    113 H113       25.6452    3.6969   -7.9311 H         1 UNK         0.0806 
    114 H114       25.2042    2.1634   -8.6786 H         1 UNK         0.0806 
    115 H115       26.8535    0.0945   -9.1245 H         1 UNK         0.3000 
    116 H116       27.1813   -0.1104  -11.9338 H         1 UNK         0.0850 
    117 H117       27.1077   -2.5834  -11.4950 H         1 UNK         0.0810 
    118 H118       25.8259   -1.7230  -10.6593 H         1 UNK         0.0810 
    119 H119       27.2403   -2.2784   -9.7676 H         1 UNK         0.0810 
    120 H120       29.4521   -0.9216   -9.2633 H         1 UNK         0.3040 
    121 H121       31.5991   -1.6871  -11.0789 H         1 UNK         0.0766 
    122 H122       32.9192   -1.8201   -8.9609 H         1 UNK         0.0812 
    123 H123       31.3912   -2.6767   -8.8308 H         1 UNK         0.0812 
    124 H124       31.5852   -1.0829   -8.0810 H         1 UNK         0.0812 
    125 H125       30.4877    1.3216   -9.7827 H         1 UNK         0.3205 
    126 H126       31.0939    3.4208   -9.8389 H         1 UNK         0.0754 
    127 H127       32.6169    4.3284  -11.5355 H         1 UNK         0.0769 
    128 H128       31.6046    3.0987  -12.2736 H         1 UNK         0.0769 
    129 H129       33.2832    2.7383  -11.8696 H         1 UNK         0.0769 
    130 H130       32.0594    1.7042   -7.8113 H         1 UNK         0.2981 
    131 H131       34.6935    2.8317   -7.0570 H         1 UNK         0.0541 
    132 H132       31.4012    3.7203   -6.6421 H         1 UNK         0.3459 
    133 H133       31.6691    4.7346   -5.2432 H         1 UNK         0.3459 
    134 H134       34.8176    1.2162   -5.2770 H         1 UNK         0.0612 
    135 H135       34.5058    0.4112   -6.7871 H         1 UNK         0.0612 
    136 H136       33.4576   -1.7873   -6.2960 H         1 UNK         0.0624 
    137 H137       34.1200   -1.5558   -4.6968 H         1 UNK         0.0624 
@<TRIPOS>BOND
     1    1    2 1    
     2    1   72 1    
     3    1   73 1    
     4    1   74 1    
     5    2    3 2    
     6    2    4 am   BACKBONE|DICT|INTERRES
     7    4    5 1    
     8    4   75 1    
     9    5    6 1    
    10    5   35 1    
    11    5   76 1    
    12    6    7 1    
    13    6   77 1    
    14    6   78 1    
    15    7    8 1    
    16    8    9 1    
    17    8   79 1    
    18    8   80 1    
    19    9   10 ar   
    20    9   14 ar   
    21   10   11 ar   
    22   10   81 1    
    23   11   12 ar   
    24   11   71 1    
    25   12   13 ar   
    26   12   82 1    
    27   13   14 ar   
    28   13   15 1    
    29   14   83 1    
    30   15   16 1    
    31   15   84 1    
    32   15   85 1    
    33   16   17 1    
    34   17   18 1    
    35   17   86 1    
    36   17   87 1    
    37   18   19 1    
    38   18   37 1    
    39   18   88 1    
    40   19   20 am   BACKBONE|DICT|INTERRES
    41   19   89 1    
    42   20   21 2    
    43   20   22 1    
    44   22   23 1    
    45   22   24 1    
    46   22   90 1    
    47   23   91 1    
    48   23   92 1    
    49   23   93 1    
    50   24   25 am   BACKBONE|DICT|INTERRES
    51   24   94 1    
    52   25   26 2    
    53   25   27 1    
    54   27   28 1    
    55   27   29 1    
    56   27   95 1    
    57   28   96 1    
    58   28   97 1    
    59   28   98 1    
    60   29   30 am   BACKBONE|DICT|INTERRES
    61   29   99 1    
    62   30   31 2    
    63   30   32 1    
    64   32   33 1    
    65   32   34 1    
    66   32  100 1    
    67   33  101 1    
    68   33  102 1    
    69   33  103 1    
    70   34   35 am   BACKBONE|DICT|INTERRES
    71   34  104 1    
    72   35   36 2    
    73   37   38 2    
    74   37   39 am   BACKBONE|DICT|INTERRES
    75   39   40 1    
    76   39  105 1    
    77   40   41 1    
    78   40   42 1    
    79   40  106 1    
    80   41  107 1    
    81   41  108 1    
    82   41  109 1    
    83   42   43 2    
    84   42   44 am   BACKBONE|DICT|INTERRES
    85   44   45 1    
    86   44  110 1    
    87   45   46 1    
    88   45   47 1    
    89   45  111 1    
    90   46  112 1    
    91   46  113 1    
    92   46  114 1    
    93   47   48 2    
    94   47   49 am   BACKBONE|DICT|INTERRES
    95   49   50 1    
    96   49  115 1    
    97   50   51 1    
    98   50   52 1    
    99   50  116 1    
   100   51  117 1    
   101   51  118 1    
   102   51  119 1    
   103   52   53 2    
   104   52   54 am   BACKBONE|DICT|INTERRES
   105   54   55 1    
   106   54  120 1    
   107   55   56 1    
   108   55   57 1    
   109   55  121 1    
   110   56  122 1    
   111   56  123 1    
   112   56  124 1    
   113   57   58 2    
   114   57   59 am   BACKBONE|DICT|INTERRES
   115   59   60 1    
   116   59  125 1    
   117   60   61 1    
   118   60   62 1    
   119   60  126 1    
   120   61  127 1    
   121   61  128 1    
   122   61  129 1    
   123   62   63 2    
   124   62   64 am   BACKBONE|DICT|INTERRES
   125   64   65 1    
   126   64  130 1    
   127   65   66 1    
   128   65   69 1    
   129   65  131 1    
   130   66   67 am   BACKBONE|DICT|INTERRES
   131   66   68 2    
   132   67  132 1    
   133   67  133 1    
   134   69   70 1    
   135   69  134 1    
   136   69  135 1    
   137   70   71 1    
   138   71  136 1    
   139   71  137 1    
@<TRIPOS>SUBSTRUCTURE
     1 UNK         1 GROUP             0       ****    0 ROOT    
