@<TRIPOS>MOLECULE
3R137
137   139    1
SMALL
USER_CHARGES


@<TRIPOS>ATOM
      1 CA         25.0072   -6.5975   -1.4417 C.3       0 UNK        -0.2020 
      2 C          25.4687   -5.1521   -1.5357 C.2       0 UNK         0.4855 
      3 O          25.2203   -4.5024   -2.5513 O.2       0 UNK        -0.5197 
      4 N          26.1157   -4.6422   -0.4769 N.am      1 UNK        -0.4892 
      5 CA         26.7168   -3.3013   -0.3590 C.3       1 UNK         0.0835 
      6 C6         28.0300   -3.1418   -1.1683 C.3       12 UNK        -0.0855 
      7 S7         29.2846   -4.4227   -0.8197 S.3       12 UNK        -0.2931 
      8 C8         30.8403   -3.4776   -0.9732 C.3       12 UNK         0.0378 
      9 C9         30.8975   -2.6589   -2.2577 C.ar      12 UNK        -0.0802 
     10 C10        30.8937   -3.2968   -3.5025 C.ar      12 UNK        -0.0944 
     11 C11        30.8798   -2.5492   -4.6836 C.ar      12 UNK        -0.0787 
     12 C12        30.8797   -1.1548   -4.6101 C.ar      12 UNK        -0.0862 
     13 C13        30.9048   -0.5021   -3.3735 C.ar      12 UNK        -0.0733 
     14 C14        30.9238   -1.2611   -2.1998 C.ar      12 UNK        -0.0832 
     15 C15        30.9197    1.0227   -3.3246 C.3       12 UNK         0.0240 
     16 S16        29.5905    1.7704   -2.3122 S.3       12 UNK        -0.2522 
     17 C17        28.0753    0.8165   -2.6890 C.3       12 UNK        -0.0967 
     18 CA         27.7759    0.5516   -4.1865 C.3       5 UNK         0.0660 
     19 N          27.0981   -0.7359   -4.3806 N.am      5 UNK        -0.4015 
     20 C          27.1242   -1.4265   -5.5298 C.2       4 UNK         0.4946 
     21 O          27.7123   -1.0357   -6.5383 O.2       4 UNK        -0.5353 
     22 CA         26.3215   -2.7348   -5.6011 C.3       4 UNK         0.0277 
     23 CB         27.2133   -3.9524   -5.3145 C.3       4 UNK        -0.1981 
     24 N          25.1430   -2.7670   -4.7304 N.am      4 UNK        -0.4209 
     25 C          24.0575   -1.9999   -4.9053 C.2       3 UNK         0.4942 
     26 O          24.0041   -1.0734   -5.7132 O.2       3 UNK        -0.5208 
     27 CA         22.8291   -2.3214   -4.0454 C.3       3 UNK         0.0250 
     28 CB         22.2537   -3.7045   -4.3979 C.3       3 UNK        -0.1990 
     29 N          23.1669   -2.2792   -2.6254 N.am      3 UNK        -0.4232 
     30 C          22.8992   -1.2494   -1.8106 C.2       2 UNK         0.4993 
     31 O          22.2865   -0.2398   -2.1606 O.2       2 UNK        -0.5286 
     32 CA         23.3857   -1.3495   -0.3510 C.3       2 UNK         0.0209 
     33 CB         22.2200   -1.7285    0.5776 C.3       2 UNK        -0.1931 
     34 N          24.4905   -2.2908   -0.1378 N.am      2 UNK        -0.4546 
     35 C          25.7112   -2.1707   -0.6776 C.2       1 UNK         0.5154 
     36 O          26.0238   -1.2528   -1.4390 O.2       1 UNK        -0.5181 
     37 C          27.0793    1.7315   -4.8998 C.2       5 UNK         0.5014 
     38 O          27.6652    2.8111   -4.9786 O.2       5 UNK        -0.5248 
     39 N          25.8895    1.5126   -5.4846 N.am      6 UNK        -0.4434 
     40 CA         25.2866    2.4359   -6.4518 C.3       6 UNK         0.0363 
     41 CB         23.8049    2.0815   -6.6520 C.3       6 UNK        -0.1936 
     42 C          26.0275    2.4391   -7.8057 C.2       6 UNK         0.5081 
     43 O          25.8976    3.4069   -8.5548 O.2       6 UNK        -0.5248 
     44 N          26.7989    1.3793   -8.0913 N.am      7 UNK        -0.4718 
     45 CA         27.6161    1.2123   -9.2929 C.3       7 UNK         0.0273 
     46 CB         27.2495   -0.1269   -9.9591 C.3       7 UNK        -0.1935 
     47 C          29.1149    1.2962   -8.9515 C.2       7 UNK         0.5018 
     48 O          29.9228    0.6097   -9.5800 O.2       7 UNK        -0.5186 
     49 N          29.4776    2.1494   -7.9797 N.am      8 UNK        -0.4240 
     50 CA         30.8466    2.3614   -7.4866 C.3       8 UNK         0.0235 
     51 CB         30.8439    3.4821   -6.4344 C.3       8 UNK        -0.2000 
     52 C          31.8817    2.6795   -8.5807 C.2       8 UNK         0.4941 
     53 O          33.0160    2.2101   -8.4921 O.2       8 UNK        -0.5273 
     54 N          31.4616    3.4321   -9.6077 N.am      9 UNK        -0.4262 
     55 CA         32.2694    3.7723  -10.7818 C.3       9 UNK         0.0264 
     56 CB         31.5409    4.8493  -11.6021 C.3       9 UNK        -0.1955 
     57 C          32.6172    2.5631  -11.6710 C.2       9 UNK         0.5031 
     58 O          33.6525    2.5949  -12.3379 O.2       9 UNK        -0.5390 
     59 N          31.7635    1.5293  -11.6701 N.am      10 UNK        -0.4204 
     60 CA         32.0062    0.2613  -12.3589 C.3       10 UNK         0.0237 
     61 CB         30.6699   -0.3472  -12.8164 C.3       10 UNK        -0.1985 
     62 C          32.7707   -0.7178  -11.4556 C.2       10 UNK         0.4970 
     63 O          33.6499   -1.4250  -11.9491 O.2       10 UNK        -0.4914 
     64 N          32.4250   -0.7419  -10.1602 N.am      11 UNK        -0.4285 
     65 CA         33.0789   -1.5653   -9.1333 C.3       11 UNK         0.1007 
     66 C          34.5703   -1.1974   -8.8913 C.2       11 UNK         0.5703 
     67 N          34.9172    0.0824   -8.8268 N.am      11 UNK        -0.7361 
     68 O          35.4193   -2.0783   -8.7768 O.2       11 UNK        -0.4986 
     69 C69        32.2691   -1.5673   -7.8089 C.3       12 UNK        -0.0947 
     70 S70        32.4296   -3.1470   -6.9081 S.3       12 UNK        -0.2240 
     71 C71        30.8346   -3.2462   -6.0361 C.3       12 UNK         0.0194 
     72 H72        23.9245   -6.6525   -1.5507 H         1 UNK         0.0906 
     73 H73        25.4602   -7.1851   -2.2396 H         1 UNK         0.0906 
     74 H74        25.2776   -7.0526   -0.4892 H         1 UNK         0.0906 
     75 H75        26.2721   -5.2412    0.3223 H         1 UNK         0.3140 
     76 H76        26.9716   -3.1748    0.6946 H         1 UNK         0.1085 
     77 H77        28.4692   -2.1680   -0.9475 H         1 UNK         0.0836 
     78 H78        27.8260   -3.1470   -2.2382 H         1 UNK         0.0836 
     79 H79        31.6822   -4.1708   -0.9499 H         1 UNK         0.0731 
     80 H80        30.9478   -2.8344   -0.0983 H         1 UNK         0.0731 
     81 H81        30.8742   -4.3772   -3.5469 H         1 UNK         0.1312 
     82 H82        30.8510   -0.5782   -5.5233 H         1 UNK         0.1406 
     83 H83        30.9328   -0.7581   -1.2422 H         1 UNK         0.1631 
     84 H84        30.8593    1.4357   -4.3308 H         1 UNK         0.0717 
     85 H85        31.8814    1.3493   -2.9270 H         1 UNK         0.0717 
     86 H86        28.2103   -0.1331   -2.1727 H         1 UNK         0.0934 
     87 H87        27.2232    1.2901   -2.1978 H         1 UNK         0.0934 
     88 H88        28.7243    0.4654   -4.7106 H         1 UNK         0.0739 
     89 H89        26.5795   -1.0989   -3.5888 H         1 UNK         0.3093 
     90 H90        25.9606   -2.8274   -6.6278 H         1 UNK         0.0818 
     91 H91        28.0110   -4.0276   -6.0529 H         1 UNK         0.0819 
     92 H92        27.6815   -3.8974   -4.3332 H         1 UNK         0.0819 
     93 H93        26.6454   -4.8817   -5.3614 H         1 UNK         0.0819 
     94 H94        25.1343   -3.4779   -3.9985 H         1 UNK         0.3041 
     95 H95        22.0619   -1.5785   -4.2748 H         1 UNK         0.0784 
     96 H96        22.0136   -3.7677   -5.4601 H         1 UNK         0.0793 
     97 H97        22.9520   -4.5113   -4.1720 H         1 UNK         0.0793 
     98 H98        21.3336   -3.8986   -3.8466 H         1 UNK         0.0793 
     99 H99        23.7290   -3.0456   -2.2729 H         1 UNK         0.3024 
    100 H100       23.7410   -0.3555   -0.0694 H         1 UNK         0.1171 
    101 H101       22.5220   -1.7066    1.6249 H         1 UNK         0.0786 
    102 H102       21.3896   -1.0292    0.4684 H         1 UNK         0.0786 
    103 H103       21.8368   -2.7258    0.3574 H         1 UNK         0.0786 
    104 H104       24.3027   -3.0927    0.4472 H         1 UNK         0.2977 
    105 H105       25.4482    0.6044   -5.3948 H         1 UNK         0.3127 
    106 H106       25.3399    3.4468   -6.0419 H         1 UNK         0.0770 
    107 H107       23.6834    1.1160   -7.1440 H         1 UNK         0.0814 
    108 H108       23.3099    2.8259   -7.2769 H         1 UNK         0.0814 
    109 H109       23.2696    2.0460   -5.7029 H         1 UNK         0.0814 
    110 H110       26.8892    0.6329   -7.4083 H         1 UNK         0.2983 
    111 H111       27.4117    2.0113  -10.0084 H         1 UNK         0.0947 
    112 H112       26.1828   -0.1832  -10.1757 H         1 UNK         0.0806 
    113 H113       27.5083   -0.9753   -9.3242 H         1 UNK         0.0806 
    114 H114       27.7768   -0.2532  -10.9052 H         1 UNK         0.0806 
    115 H115       28.7458    2.6652   -7.5108 H         1 UNK         0.3000 
    116 H116       31.1596    1.4343   -7.0036 H         1 UNK         0.0850 
    117 H117       31.8396    3.6225   -6.0109 H         1 UNK         0.0810 
    118 H118       30.1723    3.2584   -5.6071 H         1 UNK         0.0810 
    119 H119       30.5340    4.4366   -6.8616 H         1 UNK         0.0810 
    120 H120       30.5132    3.7782   -9.5895 H         1 UNK         0.3040 
    121 H121       33.2116    4.1941  -10.4250 H         1 UNK         0.0766 
    122 H122       31.3658    5.7487  -11.0114 H         1 UNK         0.0812 
    123 H123       30.5775    4.4948  -11.9709 H         1 UNK         0.0812 
    124 H124       32.1325    5.1448  -12.4699 H         1 UNK         0.0812 
    125 H125       30.9657    1.5527  -11.0447 H         1 UNK         0.3205 
    126 H126       32.6123    0.4410  -13.2496 H         1 UNK         0.0754 
    127 H127       30.8352   -1.2687  -13.3763 H         1 UNK         0.0769 
    128 H128       30.1264    0.3357  -13.4695 H         1 UNK         0.0769 
    129 H129       30.0225   -0.5921  -11.9741 H         1 UNK         0.0769 
    130 H130       31.6482   -0.1661   -9.8513 H         1 UNK         0.2981 
    131 H131       33.0684   -2.5815   -9.5331 H         1 UNK         0.0541 
    132 H132       34.2122    0.8154   -8.8522 H         1 UNK         0.3459 
    133 H133       35.8835    0.3239   -8.6794 H         1 UNK         0.3459 
    134 H134       31.2105   -1.4122   -8.0233 H         1 UNK         0.0612 
    135 H135       32.5648   -0.7430   -7.1574 H         1 UNK         0.0612 
    136 H136       30.5826   -4.2997   -5.9068 H         1 UNK         0.0624 
    137 H137       30.0396   -2.8191   -6.6485 H         1 UNK         0.0624 
@<TRIPOS>BOND
     1    1    2 1    
     2    1   72 1    
     3    1   73 1    
     4    1   74 1    
     5    2    3 2    
     6    2    4 am   BACKBONE|DICT|INTERRES
     7    4    5 1    
     8    4   75 1    
     9    5    6 1    
    10    5   35 1    
    11    5   76 1    
    12    6    7 1    
    13    6   77 1    
    14    6   78 1    
    15    7    8 1    
    16    8    9 1    
    17    8   79 1    
    18    8   80 1    
    19    9   10 ar   
    20    9   14 ar   
    21   10   11 ar   
    22   10   81 1    
    23   11   12 ar   
    24   11   71 1    
    25   12   13 ar   
    26   12   82 1    
    27   13   14 ar   
    28   13   15 1    
    29   14   83 1    
    30   15   16 1    
    31   15   84 1    
    32   15   85 1    
    33   16   17 1    
    34   17   18 1    
    35   17   86 1    
    36   17   87 1    
    37   18   19 1    
    38   18   37 1    
    39   18   88 1    
    40   19   20 am   BACKBONE|DICT|INTERRES
    41   19   89 1    
    42   20   21 2    
    43   20   22 1    
    44   22   23 1    
    45   22   24 1    
    46   22   90 1    
    47   23   91 1    
    48   23   92 1    
    49   23   93 1    
    50   24   25 am   BACKBONE|DICT|INTERRES
    51   24   94 1    
    52   25   26 2    
    53   25   27 1    
    54   27   28 1    
    55   27   29 1    
    56   27   95 1    
    57   28   96 1    
    58   28   97 1    
    59   28   98 1    
    60   29   30 am   BACKBONE|DICT|INTERRES
    61   29   99 1    
    62   30   31 2    
    63   30   32 1    
    64   32   33 1    
    65   32   34 1    
    66   32  100 1    
    67   33  101 1    
    68   33  102 1    
    69   33  103 1    
    70   34   35 am   BACKBONE|DICT|INTERRES
    71   34  104 1    
    72   35   36 2    
    73   37   38 2    
    74   37   39 am   BACKBONE|DICT|INTERRES
    75   39   40 1    
    76   39  105 1    
    77   40   41 1    
    78   40   42 1    
    79   40  106 1    
    80   41  107 1    
    81   41  108 1    
    82   41  109 1    
    83   42   43 2    
    84   42   44 am   BACKBONE|DICT|INTERRES
    85   44   45 1    
    86   44  110 1    
    87   45   46 1    
    88   45   47 1    
    89   45  111 1    
    90   46  112 1    
    91   46  113 1    
    92   46  114 1    
    93   47   48 2    
    94   47   49 am   BACKBONE|DICT|INTERRES
    95   49   50 1    
    96   49  115 1    
    97   50   51 1    
    98   50   52 1    
    99   50  116 1    
   100   51  117 1    
   101   51  118 1    
   102   51  119 1    
   103   52   53 2    
   104   52   54 am   BACKBONE|DICT|INTERRES
   105   54   55 1    
   106   54  120 1    
   107   55   56 1    
   108   55   57 1    
   109   55  121 1    
   110   56  122 1    
   111   56  123 1    
   112   56  124 1    
   113   57   58 2    
   114   57   59 am   BACKBONE|DICT|INTERRES
   115   59   60 1    
   116   59  125 1    
   117   60   61 1    
   118   60   62 1    
   119   60  126 1    
   120   61  127 1    
   121   61  128 1    
   122   61  129 1    
   123   62   63 2    
   124   62   64 am   BACKBONE|DICT|INTERRES
   125   64   65 1    
   126   64  130 1    
   127   65   66 1    
   128   65   69 1    
   129   65  131 1    
   130   66   67 am   BACKBONE|DICT|INTERRES
   131   66   68 2    
   132   67  132 1    
   133   67  133 1    
   134   69   70 1    
   135   69  134 1    
   136   69  135 1    
   137   70   71 1    
   138   71  136 1    
   139   71  137 1    
@<TRIPOS>SUBSTRUCTURE
     1 UNK         1 GROUP             0       ****    0 ROOT    
