@<TRIPOS>MOLECULE
3R137
137   139    1
SMALL
USER_CHARGES


@<TRIPOS>ATOM
      1 CA         25.0258   -6.7127   -3.7380 C.3       0 UNK        -0.2020 
      2 C          25.1161   -5.6498   -2.6542 C.2       0 UNK         0.4855 
      3 O          24.1306   -4.9621   -2.3840 O.2       0 UNK        -0.5197 
      4 N          26.2966   -5.5156   -2.0373 N.am      1 UNK        -0.4892 
      5 CA         26.6474   -4.5558   -0.9833 C.3       1 UNK         0.0835 
      6 C6         28.0991   -4.7654   -0.4605 C.3       12 UNK        -0.0855 
      7 S7         29.3285   -5.2505   -1.7319 S.3       12 UNK        -0.2931 
      8 C8         30.8503   -4.4493   -1.1366 C.3       12 UNK         0.0378 
      9 C9         31.0406   -3.0780   -1.7650 C.ar      12 UNK        -0.0802 
     10 C10        31.7493   -2.9467   -2.9626 C.ar      12 UNK        -0.0944 
     11 C11        31.9304   -1.6926   -3.5552 C.ar      12 UNK        -0.0787 
     12 C12        31.3965   -0.5593   -2.9255 C.ar      12 UNK        -0.0862 
     13 C13        30.6770   -0.6790   -1.7334 C.ar      12 UNK        -0.0733 
     14 C14        30.5134   -1.9400   -1.1527 C.ar      12 UNK        -0.0832 
     15 C15        30.0787    0.5470   -1.0596 C.3       12 UNK         0.0240 
     16 S16        28.2684    0.4081   -0.9400 S.3       12 UNK        -0.2522 
     17 C17        27.6647    1.5627   -2.2129 C.3       12 UNK        -0.0967 
     18 CA         28.0614    1.2538   -3.6818 C.3       5 UNK         0.0660 
     19 N          27.8590   -0.1491   -4.0809 N.am      5 UNK        -0.4015 
     20 C          28.1493   -0.6469   -5.2971 C.2       4 UNK         0.4946 
     21 O          28.6380    0.0148   -6.2108 O.2       4 UNK        -0.5353 
     22 CA         27.7555   -2.1020   -5.5825 C.3       4 UNK         0.0277 
     23 CB         28.7830   -3.0853   -5.0014 C.3       4 UNK        -0.1981 
     24 N          26.4148   -2.3815   -5.0678 N.am      4 UNK        -0.4209 
     25 C          25.2867   -1.9964   -5.6871 C.2       3 UNK         0.4942 
     26 O          25.2643   -1.4952   -6.8107 O.2       3 UNK        -0.5208 
     27 CA         23.9557   -2.1642   -4.9304 C.3       3 UNK         0.0250 
     28 CB         23.2452   -3.4579   -5.3558 C.3       3 UNK        -0.1990 
     29 N          24.1108   -2.1364   -3.4741 N.am      3 UNK        -0.4232 
     30 C          24.4683   -1.0428   -2.7834 C.2       2 UNK         0.4993 
     31 O          24.6393    0.0612   -3.3000 O.2       2 UNK        -0.5286 
     32 CA         24.7394   -1.2123   -1.2777 C.3       2 UNK         0.0209 
     33 CB         23.4680   -0.9157   -0.4676 C.3       2 UNK        -0.1931 
     34 N          25.2562   -2.5352   -0.9095 N.am      2 UNK        -0.4546 
     35 C          26.3636   -3.1010   -1.4130 C.2       1 UNK         0.5154 
     36 O          27.0920   -2.5447   -2.2348 O.2       1 UNK        -0.5181 
     37 C          27.3229    2.2411   -4.6126 C.2       5 UNK         0.5014 
     38 O          27.8908    3.2626   -4.9988 O.2       5 UNK        -0.5248 
     39 N          26.0751    1.9072   -4.9707 N.am      6 UNK        -0.4434 
     40 CA         25.2297    2.6656   -5.8961 C.3       6 UNK         0.0363 
     41 CB         23.7946    2.1204   -5.8111 C.3       6 UNK        -0.1936 
     42 C          25.7154    2.6535   -7.3594 C.2       6 UNK         0.5081 
     43 O          25.2581    3.4871   -8.1419 O.2       6 UNK        -0.5248 
     44 N          26.6111    1.7234   -7.7128 N.am      7 UNK        -0.4718 
     45 CA         27.1418    1.5210   -9.0610 C.3       7 UNK         0.0273 
     46 CB         26.7618    0.1031   -9.5268 C.3       7 UNK        -0.1935 
     47 C          28.6631    1.7391   -9.0995 C.2       7 UNK         0.5018 
     48 O          29.3306    1.1415   -9.9459 O.2       7 UNK        -0.5186 
     49 N          29.1916    2.5798   -8.1951 N.am      8 UNK        -0.4240 
     50 CA         30.6201    2.7891   -7.9086 C.3       8 UNK         0.0235 
     51 CB         30.7680    3.8461   -6.8022 C.3       8 UNK        -0.2000 
     52 C          31.5416    3.1281   -9.0966 C.2       8 UNK         0.4941 
     53 O          32.7543    2.9534   -8.9729 O.2       8 UNK        -0.5273 
     54 N          30.9742    3.5742  -10.2264 N.am      9 UNK        -0.4262 
     55 CA         31.6753    3.7341  -11.5048 C.3       9 UNK         0.0264 
     56 CB         30.7391    4.4165  -12.5151 C.3       9 UNK        -0.1955 
     57 C          32.2112    2.4049  -12.0775 C.2       9 UNK         0.5031 
     58 O          33.2317    2.4203  -12.7677 O.2       9 UNK        -0.5390 
     59 N          31.5295    1.2925  -11.7717 N.am      10 UNK        -0.4204 
     60 CA         31.9513   -0.0749  -12.0833 C.3       10 UNK         0.0237 
     61 CB         30.8620   -0.7650  -12.9214 C.3       10 UNK        -0.1985 
     62 C          32.2251   -0.8707  -10.7968 C.2       10 UNK         0.4970 
     63 O          33.1947   -1.6280  -10.7519 O.2       10 UNK        -0.4914 
     64 N          31.3740   -0.6790   -9.7800 N.am      11 UNK        -0.4285 
     65 CA         31.4132   -1.3205   -8.4580 C.3       11 UNK         0.1007 
     66 C          31.1592   -2.8593   -8.4700 C.2       11 UNK         0.5703 
     67 N          30.5201   -3.4065   -9.4978 N.am      11 UNK        -0.7361 
     68 O          31.5196   -3.5701   -7.5362 O.2       11 UNK        -0.4986 
     69 C69        32.6477   -0.8729   -7.6136 C.3       12 UNK        -0.0947 
     70 S70        32.1501   -0.2683   -5.9678 S.3       12 UNK        -0.2240 
     71 C71        32.7164   -1.6014   -4.8629 C.3       12 UNK         0.0194 
     72 H72        25.2221   -6.2750   -4.7159 H         1 UNK         0.0906 
     73 H73        25.7453   -7.5143   -3.5720 H         1 UNK         0.0906 
     74 H74        24.0299   -7.1547   -3.7540 H         1 UNK         0.0906 
     75 H75        27.0778   -6.0802   -2.3434 H         1 UNK         0.3140 
     76 H76        25.9820   -4.7709   -0.1443 H         1 UNK         0.1085 
     77 H77        28.0916   -5.5659    0.2809 H         1 UNK         0.0836 
     78 H78        28.4476   -3.8836    0.0797 H         1 UNK         0.0836 
     79 H79        31.6991   -5.0875   -1.3870 H         1 UNK         0.0731 
     80 H80        30.8408   -4.3782   -0.0478 H         1 UNK         0.0731 
     81 H81        32.1552   -3.8288   -3.4391 H         1 UNK         0.1312 
     82 H82        31.5329    0.4188   -3.3642 H         1 UNK         0.1406 
     83 H83        29.9580   -2.0331   -0.2299 H         1 UNK         0.1631 
     84 H84        30.3536    1.4648   -1.5812 H         1 UNK         0.0717 
     85 H85        30.4907    0.6311   -0.0532 H         1 UNK         0.0717 
     86 H86        26.5779    1.5866   -2.1106 H         1 UNK         0.0934 
     87 H87        28.0044    2.5639   -1.9399 H         1 UNK         0.0934 
     88 H88        29.1295    1.4498   -3.7931 H         1 UNK         0.0739 
     89 H89        27.5072   -0.7785   -3.3673 H         1 UNK         0.3093 
     90 H90        27.7478   -2.2408   -6.6661 H         1 UNK         0.0818 
     91 H91        28.9179   -2.9560   -3.9282 H         1 UNK         0.0819 
     92 H92        28.4952   -4.1207   -5.1815 H         1 UNK         0.0819 
     93 H93        29.7603   -2.9336   -5.4611 H         1 UNK         0.0819 
     94 H94        26.3681   -2.7201   -4.1128 H         1 UNK         0.3041 
     95 H95        23.3160   -1.3243   -5.2102 H         1 UNK         0.0784 
     96 H96        23.0482   -3.4577   -6.4287 H         1 UNK         0.0793 
     97 H97        23.8460   -4.3393   -5.1373 H         1 UNK         0.0793 
     98 H98        22.2862   -3.5708   -4.8498 H         1 UNK         0.0793 
     99 H99        24.0135   -3.0202   -2.9816 H         1 UNK         0.3024 
    100 H100       25.4966   -0.4770   -1.0034 H         1 UNK         0.1171 
    101 H101       22.6791   -1.6403   -0.6741 H         1 UNK         0.0786 
    102 H102       23.0743    0.0730   -0.7085 H         1 UNK         0.0786 
    103 H103       23.6673   -0.9300    0.6041 H         1 UNK         0.0786 
    104 H104       24.6802   -3.0802   -0.2837 H         1 UNK         0.2977 
    105 H105       25.6489    1.0916   -4.5345 H         1 UNK         0.3127 
    106 H106       25.2219    3.7064   -5.5660 H         1 UNK         0.0770 
    107 H107       23.7452    1.0755   -6.1204 H         1 UNK         0.0814 
    108 H108       23.1205    2.6850   -6.4567 H         1 UNK         0.0814 
    109 H109       23.4027    2.1882   -4.7960 H         1 UNK         0.0814 
    110 H110       26.9872    1.1048   -7.0014 H         1 UNK         0.2983 
    111 H111       26.7067    2.2377   -9.7602 H         1 UNK         0.0947 
    112 H112       27.0736   -0.0739  -10.5570 H         1 UNK         0.0806 
    113 H113       25.6835   -0.0517   -9.4848 H         1 UNK         0.0806 
    114 H114       27.2307   -0.6606   -8.9045 H         1 UNK         0.0806 
    115 H115       28.5496    2.9987   -7.5358 H         1 UNK         0.3000 
    116 H116       30.9856    1.8414   -7.5137 H         1 UNK         0.0850 
    117 H117       31.8178    4.0601   -6.5954 H         1 UNK         0.0810 
    118 H118       30.3300    3.5002   -5.8668 H         1 UNK         0.0810 
    119 H119       30.2892    4.7870   -7.0750 H         1 UNK         0.0810 
    120 H120       29.9721    3.6966  -10.2357 H         1 UNK         0.3040 
    121 H121       32.5333    4.3880  -11.3347 H         1 UNK         0.0766 
    122 H122       30.4154    5.3948  -12.1595 H         1 UNK         0.0812 
    123 H123       29.8491    3.8170  -12.7108 H         1 UNK         0.0812 
    124 H124       31.2436    4.5716  -13.4700 H         1 UNK         0.0812 
    125 H125       30.7041    1.3861  -11.1840 H         1 UNK         0.3205 
    126 H126       32.8755   -0.0667  -12.6651 H         1 UNK         0.0754 
    127 H127       31.1402   -1.7937  -13.1549 H         1 UNK         0.0769 
    128 H128       30.7094   -0.2480  -13.8690 H         1 UNK         0.0769 
    129 H129       29.9043   -0.7929  -12.3996 H         1 UNK         0.0769 
    130 H130       30.5849   -0.0492   -9.9124 H         1 UNK         0.2981 
    131 H131       30.5169   -0.9268   -7.9778 H         1 UNK         0.0541 
    132 H132       30.2094   -2.8398  -10.2696 H         1 UNK         0.3459 
    133 H133       30.3535   -4.4002   -9.4994 H         1 UNK         0.3459 
    134 H134       33.3980   -1.6605   -7.5271 H         1 UNK         0.0612 
    135 H135       33.1617   -0.0398   -8.0957 H         1 UNK         0.0612 
    136 H136       32.6448   -2.5507   -5.3938 H         1 UNK         0.0624 
    137 H137       33.7721   -1.4488   -4.6365 H         1 UNK         0.0624 
@<TRIPOS>BOND
     1    1    2 1    
     2    1   72 1    
     3    1   73 1    
     4    1   74 1    
     5    2    3 2    
     6    2    4 am   BACKBONE|DICT|INTERRES
     7    4    5 1    
     8    4   75 1    
     9    5    6 1    
    10    5   35 1    
    11    5   76 1    
    12    6    7 1    
    13    6   77 1    
    14    6   78 1    
    15    7    8 1    
    16    8    9 1    
    17    8   79 1    
    18    8   80 1    
    19    9   10 ar   
    20    9   14 ar   
    21   10   11 ar   
    22   10   81 1    
    23   11   12 ar   
    24   11   71 1    
    25   12   13 ar   
    26   12   82 1    
    27   13   14 ar   
    28   13   15 1    
    29   14   83 1    
    30   15   16 1    
    31   15   84 1    
    32   15   85 1    
    33   16   17 1    
    34   17   18 1    
    35   17   86 1    
    36   17   87 1    
    37   18   19 1    
    38   18   37 1    
    39   18   88 1    
    40   19   20 am   BACKBONE|DICT|INTERRES
    41   19   89 1    
    42   20   21 2    
    43   20   22 1    
    44   22   23 1    
    45   22   24 1    
    46   22   90 1    
    47   23   91 1    
    48   23   92 1    
    49   23   93 1    
    50   24   25 am   BACKBONE|DICT|INTERRES
    51   24   94 1    
    52   25   26 2    
    53   25   27 1    
    54   27   28 1    
    55   27   29 1    
    56   27   95 1    
    57   28   96 1    
    58   28   97 1    
    59   28   98 1    
    60   29   30 am   BACKBONE|DICT|INTERRES
    61   29   99 1    
    62   30   31 2    
    63   30   32 1    
    64   32   33 1    
    65   32   34 1    
    66   32  100 1    
    67   33  101 1    
    68   33  102 1    
    69   33  103 1    
    70   34   35 am   BACKBONE|DICT|INTERRES
    71   34  104 1    
    72   35   36 2    
    73   37   38 2    
    74   37   39 am   BACKBONE|DICT|INTERRES
    75   39   40 1    
    76   39  105 1    
    77   40   41 1    
    78   40   42 1    
    79   40  106 1    
    80   41  107 1    
    81   41  108 1    
    82   41  109 1    
    83   42   43 2    
    84   42   44 am   BACKBONE|DICT|INTERRES
    85   44   45 1    
    86   44  110 1    
    87   45   46 1    
    88   45   47 1    
    89   45  111 1    
    90   46  112 1    
    91   46  113 1    
    92   46  114 1    
    93   47   48 2    
    94   47   49 am   BACKBONE|DICT|INTERRES
    95   49   50 1    
    96   49  115 1    
    97   50   51 1    
    98   50   52 1    
    99   50  116 1    
   100   51  117 1    
   101   51  118 1    
   102   51  119 1    
   103   52   53 2    
   104   52   54 am   BACKBONE|DICT|INTERRES
   105   54   55 1    
   106   54  120 1    
   107   55   56 1    
   108   55   57 1    
   109   55  121 1    
   110   56  122 1    
   111   56  123 1    
   112   56  124 1    
   113   57   58 2    
   114   57   59 am   BACKBONE|DICT|INTERRES
   115   59   60 1    
   116   59  125 1    
   117   60   61 1    
   118   60   62 1    
   119   60  126 1    
   120   61  127 1    
   121   61  128 1    
   122   61  129 1    
   123   62   63 2    
   124   62   64 am   BACKBONE|DICT|INTERRES
   125   64   65 1    
   126   64  130 1    
   127   65   66 1    
   128   65   69 1    
   129   65  131 1    
   130   66   67 am   BACKBONE|DICT|INTERRES
   131   66   68 2    
   132   67  132 1    
   133   67  133 1    
   134   69   70 1    
   135   69  134 1    
   136   69  135 1    
   137   70   71 1    
   138   71  136 1    
   139   71  137 1    
@<TRIPOS>SUBSTRUCTURE
     1 UNK         1 GROUP             0       ****    0 ROOT    
