@<TRIPOS>MOLECULE
3R137
137   139    1
SMALL
USER_CHARGES


@<TRIPOS>ATOM
      1 CA         27.9357   -7.5276   -2.9410 C.3       0 UNK        -0.2020 
      2 C          27.4035   -6.3814   -2.0938 C.2       0 UNK         0.4855 
      3 O          26.4844   -6.5828   -1.2989 O.2       0 UNK        -0.5197 
      4 N          27.9807   -5.1840   -2.2508 N.am      1 UNK        -0.4892 
      5 CA         27.5580   -3.9568   -1.5660 C.3       1 UNK         0.0835 
      6 C6         28.6504   -2.8647   -1.6167 C.3       12 UNK        -0.0855 
      7 S7         30.1911   -3.3700   -0.7783 S.3       12 UNK        -0.2931 
      8 C8         31.4416   -3.0640   -2.0760 C.3       12 UNK         0.0378 
      9 C9         31.3911   -1.6596   -2.6784 C.ar      12 UNK        -0.0802 
     10 C10        31.6521   -1.4892   -4.0410 C.ar      12 UNK        -0.0944 
     11 C11        31.6047   -0.2192   -4.6221 C.ar      12 UNK        -0.0787 
     12 C12        31.2846    0.8887   -3.8328 C.ar      12 UNK        -0.0862 
     13 C13        30.9871    0.7309   -2.4766 C.ar      12 UNK        -0.0733 
     14 C14        31.0734   -0.5393   -1.9008 C.ar      12 UNK        -0.0832 
     15 C15        30.5454    1.9181   -1.6277 C.3       12 UNK         0.0240 
     16 S16        29.0981    2.8089   -2.3040 S.3       12 UNK        -0.2522 
     17 C17        27.9336    1.4777   -2.7744 C.3       12 UNK        -0.0967 
     18 CA         27.7962    1.3747   -4.3169 C.3       5 UNK         0.0660 
     19 N          27.4084    0.0374   -4.7610 N.am      5 UNK        -0.4015 
     20 C          27.7011   -0.4559   -5.9729 C.2       4 UNK         0.4946 
     21 O          28.3893    0.1337   -6.8081 O.2       4 UNK        -0.5353 
     22 CA         27.0960   -1.8236   -6.3338 C.3       4 UNK         0.0277 
     23 CB         28.0348   -2.9625   -5.9061 C.3       4 UNK        -0.1981 
     24 N          25.7599   -2.0319   -5.7643 N.am      4 UNK        -0.4209 
     25 C          24.6846   -1.3072   -6.1126 C.2       3 UNK         0.4942 
     26 O          24.7121   -0.4132   -6.9550 O.2       3 UNK        -0.5208 
     27 CA         23.3630   -1.5762   -5.3754 C.3       3 UNK         0.0250 
     28 CB         22.5602   -2.6665   -6.1020 C.3       3 UNK        -0.1990 
     29 N          23.5182   -1.9442   -3.9683 N.am      3 UNK        -0.4232 
     30 C          24.2020   -1.2693   -3.0332 C.2       2 UNK         0.4993 
     31 O          24.8102   -0.2160   -3.2422 O.2       2 UNK        -0.5286 
     32 CA         24.2676   -1.9166   -1.6370 C.3       2 UNK         0.0209 
     33 CB         23.1259   -2.9220   -1.3631 C.3       2 UNK        -0.1931 
     34 N          25.5630   -2.5558   -1.3680 N.am      2 UNK        -0.4546 
     35 C          26.2386   -3.4129   -2.1517 C.2       1 UNK         0.5154 
     36 O          25.8875   -3.7412   -3.2900 O.2       1 UNK        -0.5181 
     37 C          26.8320    2.4287   -4.8911 C.2       5 UNK         0.5014 
     38 O          27.2928    3.4404   -5.4204 O.2       5 UNK        -0.5248 
     39 N          25.5181    2.1652   -4.8051 N.am      6 UNK        -0.4434 
     40 CA         24.4568    3.0747   -5.2511 C.3       6 UNK         0.0363 
     41 CB         23.0866    2.5172   -4.8377 C.3       6 UNK        -0.1936 
     42 C          24.4858    3.3796   -6.7599 C.2       6 UNK         0.5081 
     43 O          24.2963    4.5345   -7.1427 O.2       6 UNK        -0.5248 
     44 N          24.7389    2.3563   -7.5873 N.am      7 UNK        -0.4718 
     45 CA         24.8811    2.4880   -9.0413 C.3       7 UNK         0.0273 
     46 CB         24.5234    1.1487   -9.7078 C.3       7 UNK        -0.1935 
     47 C          26.2882    2.9374   -9.4758 C.2       7 UNK         0.5018 
     48 O          26.4639    3.2545  -10.6528 O.2       7 UNK        -0.5186 
     49 N          27.2515    2.9438   -8.5399 N.am      8 UNK        -0.4240 
     50 CA         28.6766    3.2414   -8.7187 C.3       8 UNK         0.0235 
     51 CB         28.8879    4.7286   -9.0741 C.3       8 UNK        -0.2000 
     52 C          29.3394    2.2773   -9.7202 C.2       8 UNK         0.4941 
     53 O          29.7764    2.6958  -10.7954 O.2       8 UNK        -0.5273 
     54 N          29.3681    0.9904   -9.3501 N.am      9 UNK        -0.4262 
     55 CA         29.9955   -0.0951  -10.1084 C.3       9 UNK         0.0264 
     56 CB         29.4991   -1.4342   -9.5295 C.3       9 UNK        -0.1955 
     57 C          31.5370   -0.0164  -10.0986 C.2       9 UNK         0.5031 
     58 O          32.1174    0.8658   -9.4636 O.2       9 UNK        -0.5390 
     59 N          32.1816   -0.9715  -10.7849 N.am      10 UNK        -0.4204 
     60 CA         33.6424   -1.1306  -10.8369 C.3       10 UNK         0.0237 
     61 CB         33.9968   -2.1341  -11.9474 C.3       10 UNK        -0.1985 
     62 C          34.2860   -1.5574   -9.4998 C.2       10 UNK         0.4970 
     63 O          35.5007   -1.4188   -9.3520 O.2       10 UNK        -0.4914 
     64 N          33.4696   -2.0686   -8.5678 N.am      11 UNK        -0.4285 
     65 CA         33.8304   -2.4819   -7.1994 C.3       11 UNK         0.1007 
     66 C          34.6725   -3.7907   -7.1102 C.2       11 UNK         0.5703 
     67 N          34.8130   -4.5639   -8.1805 N.am      11 UNK        -0.7361 
     68 O          35.1791   -4.1332   -6.0443 O.2       11 UNK        -0.4986 
     69 C69        34.4262   -1.3358   -6.3206 C.3       12 UNK        -0.0947 
     70 S70        33.6189    0.3013   -6.4497 S.3       12 UNK        -0.2240 
     71 C71        31.8649   -0.0417   -6.1082 C.3       12 UNK         0.0194 
     72 H72        27.1420   -7.9263   -3.5723 H         1 UNK         0.0906 
     73 H73        28.7555   -7.2124   -3.5863 H         1 UNK         0.0906 
     74 H74        28.2983   -8.3311   -2.3005 H         1 UNK         0.0906 
     75 H75        28.7245   -5.0745   -2.9236 H         1 UNK         0.3140 
     76 H76        27.3711   -4.2072   -0.5188 H         1 UNK         0.1085 
     77 H77        28.3104   -1.9495   -1.1281 H         1 UNK         0.0836 
     78 H78        28.8592   -2.5889   -2.6508 H         1 UNK         0.0836 
     79 H79        31.3096   -3.8147   -2.8568 H         1 UNK         0.0731 
     80 H80        32.4337   -3.2281   -1.6538 H         1 UNK         0.0731 
     81 H81        31.8905   -2.3481   -4.6515 H         1 UNK         0.1312 
     82 H82        31.2323    1.8713   -4.2816 H         1 UNK         0.1406 
     83 H83        30.8630   -0.6606   -0.8471 H         1 UNK         0.1631 
     84 H84        31.3775    2.6171   -1.5353 H         1 UNK         0.0717 
     85 H85        30.3021    1.5969   -0.6137 H         1 UNK         0.0717 
     86 H86        28.2904    0.5338   -2.3607 H         1 UNK         0.0934 
     87 H87        26.9688    1.6547   -2.2945 H         1 UNK         0.0934 
     88 H88        28.7760    1.5799   -4.7519 H         1 UNK         0.0739 
     89 H89        26.7600   -0.4660   -4.1693 H         1 UNK         0.3093 
     90 H90        26.9996   -1.8562   -7.4210 H         1 UNK         0.0818 
     91 H91        29.0327   -2.8259   -6.3251 H         1 UNK         0.0819 
     92 H92        27.6670   -3.9288   -6.2512 H         1 UNK         0.0819 
     93 H93        28.1403   -3.0137   -4.8236 H         1 UNK         0.0819 
     94 H94        25.6692   -2.7285   -5.0292 H         1 UNK         0.3041 
     95 H95        22.7786   -0.6567   -5.4024 H         1 UNK         0.0784 
     96 H96        22.4104   -2.4068   -7.1512 H         1 UNK         0.0793 
     97 H97        23.0707   -3.6301   -6.0741 H         1 UNK         0.0793 
     98 H98        21.5724   -2.7955   -5.6590 H         1 UNK         0.0793 
     99 H99        23.1032   -2.8218   -3.6911 H         1 UNK         0.3024 
    100 H100       24.1631   -1.0956   -0.9253 H         1 UNK         0.1171 
    101 H101       23.1242   -3.2301   -0.3173 H         1 UNK         0.0786 
    102 H102       22.1490   -2.4789   -1.5631 H         1 UNK         0.0786 
    103 H103       23.2153   -3.8265   -1.9661 H         1 UNK         0.0786 
    104 H104       25.9696   -2.3204   -0.4729 H         1 UNK         0.2977 
    105 H105       25.2225    1.3109   -4.3382 H         1 UNK         0.3127 
    106 H106       24.6059    4.0200   -4.7249 H         1 UNK         0.0770 
    107 H107       22.8489    1.6007   -5.3753 H         1 UNK         0.0814 
    108 H108       22.2946    3.2344   -5.0570 H         1 UNK         0.0814 
    109 H109       23.0456    2.3037   -3.7694 H         1 UNK         0.0814 
    110 H110       24.8352    1.4146   -7.2094 H         1 UNK         0.2983 
    111 H111       24.1749    3.2409   -9.3985 H         1 UNK         0.0947 
    112 H112       23.5337    0.8050   -9.4067 H         1 UNK         0.0806 
    113 H113       25.2419    0.3684   -9.4536 H         1 UNK         0.0806 
    114 H114       24.5178    1.2423  -10.7946 H         1 UNK         0.0806 
    115 H115       26.9815    2.6885   -7.5988 H         1 UNK         0.3000 
    116 H116       29.1519    3.0646   -7.7520 H         1 UNK         0.0850 
    117 H117       29.9509    4.9654   -9.1327 H         1 UNK         0.0810 
    118 H118       28.4507    5.3806   -8.3178 H         1 UNK         0.0810 
    119 H119       28.4449    4.9867  -10.0364 H         1 UNK         0.0810 
    120 H120       28.9990    0.7393   -8.4335 H         1 UNK         0.3040 
    121 H121       29.6648   -0.0177  -11.1462 H         1 UNK         0.0766 
    122 H122       28.4099   -1.4789   -9.5232 H         1 UNK         0.0812 
    123 H123       29.8416   -1.5804   -8.5045 H         1 UNK         0.0812 
    124 H124       29.8453   -2.2848  -10.1171 H         1 UNK         0.0812 
    125 H125       31.6376   -1.6499  -11.2992 H         1 UNK         0.3205 
    126 H126       34.0733   -0.1627  -11.1019 H         1 UNK         0.0754 
    127 H127       33.6305   -1.7983  -12.9179 H         1 UNK         0.0769 
    128 H128       33.5758   -3.1210  -11.7514 H         1 UNK         0.0769 
    129 H129       35.0777   -2.2531  -12.0372 H         1 UNK         0.0769 
    130 H130       32.4955   -2.1674   -8.8062 H         1 UNK         0.2981 
    131 H131       32.8815   -2.7663   -6.7473 H         1 UNK         0.0541 
    132 H132       34.3991   -4.3013   -9.0599 H         1 UNK         0.3459 
    133 H133       35.3497   -5.4138   -8.1075 H         1 UNK         0.3459 
    134 H134       34.4144   -1.6265   -5.2689 H         1 UNK         0.0612 
    135 H135       35.4772   -1.1867   -6.5736 H         1 UNK         0.0612 
    136 H136       31.2741    0.7954   -6.4841 H         1 UNK         0.0624 
    137 H137       31.5223   -0.9105   -6.6687 H         1 UNK         0.0624 
@<TRIPOS>BOND
     1    1    2 1    
     2    1   72 1    
     3    1   73 1    
     4    1   74 1    
     5    2    3 2    
     6    2    4 am   BACKBONE|DICT|INTERRES
     7    4    5 1    
     8    4   75 1    
     9    5    6 1    
    10    5   35 1    
    11    5   76 1    
    12    6    7 1    
    13    6   77 1    
    14    6   78 1    
    15    7    8 1    
    16    8    9 1    
    17    8   79 1    
    18    8   80 1    
    19    9   10 ar   
    20    9   14 ar   
    21   10   11 ar   
    22   10   81 1    
    23   11   12 ar   
    24   11   71 1    
    25   12   13 ar   
    26   12   82 1    
    27   13   14 ar   
    28   13   15 1    
    29   14   83 1    
    30   15   16 1    
    31   15   84 1    
    32   15   85 1    
    33   16   17 1    
    34   17   18 1    
    35   17   86 1    
    36   17   87 1    
    37   18   19 1    
    38   18   37 1    
    39   18   88 1    
    40   19   20 am   BACKBONE|DICT|INTERRES
    41   19   89 1    
    42   20   21 2    
    43   20   22 1    
    44   22   23 1    
    45   22   24 1    
    46   22   90 1    
    47   23   91 1    
    48   23   92 1    
    49   23   93 1    
    50   24   25 am   BACKBONE|DICT|INTERRES
    51   24   94 1    
    52   25   26 2    
    53   25   27 1    
    54   27   28 1    
    55   27   29 1    
    56   27   95 1    
    57   28   96 1    
    58   28   97 1    
    59   28   98 1    
    60   29   30 am   BACKBONE|DICT|INTERRES
    61   29   99 1    
    62   30   31 2    
    63   30   32 1    
    64   32   33 1    
    65   32   34 1    
    66   32  100 1    
    67   33  101 1    
    68   33  102 1    
    69   33  103 1    
    70   34   35 am   BACKBONE|DICT|INTERRES
    71   34  104 1    
    72   35   36 2    
    73   37   38 2    
    74   37   39 am   BACKBONE|DICT|INTERRES
    75   39   40 1    
    76   39  105 1    
    77   40   41 1    
    78   40   42 1    
    79   40  106 1    
    80   41  107 1    
    81   41  108 1    
    82   41  109 1    
    83   42   43 2    
    84   42   44 am   BACKBONE|DICT|INTERRES
    85   44   45 1    
    86   44  110 1    
    87   45   46 1    
    88   45   47 1    
    89   45  111 1    
    90   46  112 1    
    91   46  113 1    
    92   46  114 1    
    93   47   48 2    
    94   47   49 am   BACKBONE|DICT|INTERRES
    95   49   50 1    
    96   49  115 1    
    97   50   51 1    
    98   50   52 1    
    99   50  116 1    
   100   51  117 1    
   101   51  118 1    
   102   51  119 1    
   103   52   53 2    
   104   52   54 am   BACKBONE|DICT|INTERRES
   105   54   55 1    
   106   54  120 1    
   107   55   56 1    
   108   55   57 1    
   109   55  121 1    
   110   56  122 1    
   111   56  123 1    
   112   56  124 1    
   113   57   58 2    
   114   57   59 am   BACKBONE|DICT|INTERRES
   115   59   60 1    
   116   59  125 1    
   117   60   61 1    
   118   60   62 1    
   119   60  126 1    
   120   61  127 1    
   121   61  128 1    
   122   61  129 1    
   123   62   63 2    
   124   62   64 am   BACKBONE|DICT|INTERRES
   125   64   65 1    
   126   64  130 1    
   127   65   66 1    
   128   65   69 1    
   129   65  131 1    
   130   66   67 am   BACKBONE|DICT|INTERRES
   131   66   68 2    
   132   67  132 1    
   133   67  133 1    
   134   69   70 1    
   135   69  134 1    
   136   69  135 1    
   137   70   71 1    
   138   71  136 1    
   139   71  137 1    
@<TRIPOS>SUBSTRUCTURE
     1 UNK         1 GROUP             0       ****    0 ROOT    
