@<TRIPOS>MOLECULE
3R137
137   139    1
SMALL
USER_CHARGES


@<TRIPOS>ATOM
      1 CA         28.0501    0.3495    1.8552 C.3       0 UNK        -0.2020 
      2 C          28.7832   -0.9660    2.1082 C.2       0 UNK         0.4855 
      3 O          29.1427   -1.2447    3.2508 O.2       0 UNK        -0.5197 
      4 N          29.0441   -1.7971    1.0898 N.am      1 UNK        -0.4892 
      5 CA         28.6329   -1.6457   -0.3132 C.3       1 UNK         0.0835 
      6 C6         29.4275   -2.5862   -1.2543 C.3       12 UNK        -0.0855 
      7 S7         31.2391   -2.4515   -1.0803 S.3       12 UNK        -0.2931 
      8 C8         31.7622   -4.1343   -1.5515 C.3       12 UNK         0.0378 
      9 C9         31.8930   -4.2840   -3.0616 C.ar      12 UNK        -0.0802 
     10 C10        33.1579   -4.3897   -3.6451 C.ar      12 UNK        -0.0944 
     11 C11        33.2935   -4.5235   -5.0287 C.ar      12 UNK        -0.0787 
     12 C12        32.1475   -4.5279   -5.8335 C.ar      12 UNK        -0.0862 
     13 C13        30.8710   -4.4145   -5.2694 C.ar      12 UNK        -0.0733 
     14 C14        30.7566   -4.3239   -3.8761 C.ar      12 UNK        -0.0832 
     15 C15        29.6483   -4.4421   -6.1927 C.3       12 UNK         0.0240 
     16 S16        28.0973   -3.7701   -5.4870 S.3       12 UNK        -0.2522 
     17 C17        28.3485   -1.9657   -5.6055 C.3       12 UNK        -0.0967 
     18 CA         27.5419   -1.3359   -6.7711 C.3       5 UNK         0.0660 
     19 N          26.1026   -1.6018   -6.6779 N.am      5 UNK        -0.4015 
     20 C          25.2186   -1.3760   -7.6606 C.2       4 UNK         0.4946 
     21 O          25.5199   -0.9339   -8.7690 O.2       4 UNK        -0.5353 
     22 CA         23.7414   -1.6541   -7.3376 C.3       4 UNK         0.0277 
     23 CB         23.4413   -3.1599   -7.4130 C.3       4 UNK        -0.1981 
     24 N          23.3438   -1.1340   -6.0270 N.am      4 UNK        -0.4209 
     25 C          23.3176    0.1682   -5.7065 C.2       3 UNK         0.4942 
     26 O          23.5811    1.0732   -6.4948 O.2       3 UNK        -0.5208 
     27 CA         22.9872    0.5245   -4.2484 C.3       3 UNK         0.0250 
     28 CB         21.4673    0.6408   -4.0525 C.3       3 UNK        -0.1990 
     29 N          23.5405   -0.4188   -3.2721 N.am      3 UNK        -0.4232 
     30 C          24.8435   -0.6924   -3.1242 C.2       2 UNK         0.4993 
     31 O          25.7408   -0.2093   -3.8231 O.2       2 UNK        -0.5286 
     32 CA         25.1987   -1.7185   -2.0482 C.3       2 UNK         0.0209 
     33 CB         25.0275   -3.1511   -2.5903 C.3       2 UNK        -0.1931 
     34 N          26.5832   -1.5004   -1.6440 N.am      2 UNK        -0.4546 
     35 C          27.1224   -1.9114   -0.4929 C.2       1 UNK         0.5154 
     36 O          26.4864   -2.5103    0.3791 O.2       1 UNK        -0.5181 
     37 C          27.8153    0.1759   -6.8894 C.2       5 UNK         0.5014 
     38 O          28.6482    0.5761   -7.7039 O.2       5 UNK        -0.5248 
     39 N          27.0821    0.9875   -6.1121 N.am      6 UNK        -0.4434 
     40 CA         27.1172    2.4495   -6.1726 C.3       6 UNK         0.0363 
     41 CB         26.2920    3.0393   -5.0184 C.3       6 UNK        -0.1936 
     42 C          26.6436    3.0003   -7.5290 C.2       6 UNK         0.5081 
     43 O          27.3339    3.8382   -8.1080 O.2       6 UNK        -0.5248 
     44 N          25.5057    2.4995   -8.0337 N.am      7 UNK        -0.4718 
     45 CA         24.9352    2.8654   -9.3361 C.3       7 UNK         0.0273 
     46 CB         23.5388    2.2416   -9.4870 C.3       7 UNK        -0.1935 
     47 C          25.8289    2.4739  -10.5241 C.2       7 UNK         0.5018 
     48 O          25.9202    3.2353  -11.4877 O.2       7 UNK        -0.5186 
     49 N          26.4969    1.3169  -10.4215 N.am      8 UNK        -0.4240 
     50 CA         27.5000    0.8463  -11.3802 C.3       8 UNK         0.0235 
     51 CB         27.7396   -0.6558  -11.1512 C.3       8 UNK        -0.2000 
     52 C          28.8361    1.6118  -11.3090 C.2       8 UNK         0.4941 
     53 O          29.6582    1.4421  -12.2105 O.2       8 UNK        -0.5273 
     54 N          29.0441    2.4038  -10.2437 N.am      9 UNK        -0.4262 
     55 CA         30.2858    3.0929   -9.8703 C.3       9 UNK         0.0264 
     56 CB         30.6333    4.2041  -10.8837 C.3       9 UNK        -0.1955 
     57 C          31.4441    2.1054   -9.6240 C.2       9 UNK         0.5031 
     58 O          32.5817    2.3673  -10.0227 O.2       9 UNK        -0.5390 
     59 N          31.1187    0.9733   -8.9887 N.am      10 UNK        -0.4204 
     60 CA         32.0406   -0.1099   -8.6648 C.3       10 UNK         0.0237 
     61 CB         31.2463   -1.4308   -8.6337 C.3       10 UNK        -0.1985 
     62 C          32.7638    0.1442   -7.3314 C.2       10 UNK         0.4970 
     63 O          32.5234    1.1477   -6.6564 O.2       10 UNK        -0.4914 
     64 N          33.6321   -0.8061   -6.9794 N.am      11 UNK        -0.4285 
     65 CA         34.4166   -0.8930   -5.7387 C.3       11 UNK         0.1007 
     66 C          33.6113   -1.0002   -4.4082 C.2       11 UNK         0.5703 
     67 N          32.2938   -1.1518   -4.4262 N.am      11 UNK        -0.7361 
     68 O          34.2017   -0.9222   -3.3334 O.2       11 UNK        -0.4986 
     69 C69        35.5280   -1.9833   -5.8528 C.3       12 UNK        -0.0947 
     70 S70        35.0938   -3.4428   -6.8734 S.3       12 UNK        -0.2240 
     71 C71        34.6768   -4.7122   -5.6394 C.3       12 UNK         0.0194 
     72 H72        28.5379    0.9323    1.0749 H         1 UNK         0.0906 
     73 H73        27.0142    0.1697    1.5705 H         1 UNK         0.0906 
     74 H74        28.0416    0.9588    2.7588 H         1 UNK         0.0906 
     75 H75        29.5355   -2.6559    1.2905 H         1 UNK         0.3140 
     76 H76        28.8346   -0.6185   -0.6221 H         1 UNK         0.1085 
     77 H77        29.1316   -3.6231   -1.0812 H         1 UNK         0.0836 
     78 H78        29.1830   -2.3664   -2.2952 H         1 UNK         0.0836 
     79 H79        31.0678   -4.8787   -1.1600 H         1 UNK         0.0731 
     80 H80        32.7193   -4.3387   -1.0691 H         1 UNK         0.0731 
     81 H81        34.0396   -4.3727   -3.0191 H         1 UNK         0.1312 
     82 H82        32.2529   -4.6324   -6.9048 H         1 UNK         0.1406 
     83 H83        29.7812   -4.2789   -3.4174 H         1 UNK         0.1631 
     84 H84        29.4661   -5.4796   -6.4749 H         1 UNK         0.0717 
     85 H85        29.8681   -3.9079   -7.1183 H         1 UNK         0.0717 
     86 H86        28.0529   -1.5231   -4.6527 H         1 UNK         0.0934 
     87 H87        29.4146   -1.7594   -5.7118 H         1 UNK         0.0934 
     88 H88        27.8921   -1.7931   -7.6992 H         1 UNK         0.0739 
     89 H89        25.7689   -1.9386   -5.7877 H         1 UNK         0.3093 
     90 H90        23.1381   -1.1481   -8.0947 H         1 UNK         0.0818 
     91 H91        23.7188   -3.5630   -8.3881 H         1 UNK         0.0819 
     92 H92        23.9916   -3.7245   -6.6591 H         1 UNK         0.0819 
     93 H93        22.3787   -3.3599   -7.2733 H         1 UNK         0.0819 
     94 H94        23.1004   -1.8084   -5.3166 H         1 UNK         0.3041 
     95 H95        23.4306    1.5010   -4.0437 H         1 UNK         0.0784 
     96 H96        21.0372    1.3538   -4.7577 H         1 UNK         0.0793 
     97 H97        20.9634   -0.3142   -4.2069 H         1 UNK         0.0793 
     98 H98        21.2216    0.9930   -3.0504 H         1 UNK         0.0793 
     99 H99        22.8757   -0.8732   -2.6619 H         1 UNK         0.3024 
    100 H100       24.5433   -1.5644   -1.1874 H         1 UNK         0.1171 
    101 H101       25.2531   -3.8953   -1.8264 H         1 UNK         0.0786 
    102 H102       24.0030   -3.3313   -2.9182 H         1 UNK         0.0786 
    103 H103       25.6831   -3.3407   -3.4412 H         1 UNK         0.0786 
    104 H104       27.1242   -0.9649   -2.3121 H         1 UNK         0.2977 
    105 H105       26.4531    0.5721   -5.4286 H         1 UNK         0.3127 
    106 H106       28.1563    2.7569   -6.0358 H         1 UNK         0.0770 
    107 H107       25.2380    2.7742   -5.0978 H         1 UNK         0.0814 
    108 H108       26.3542    4.1282   -5.0128 H         1 UNK         0.0814 
    109 H109       26.6529    2.6875   -4.0517 H         1 UNK         0.0814 
    110 H110       24.9629    1.8457   -7.4721 H         1 UNK         0.2983 
    111 H111       24.8268    3.9519   -9.3545 H         1 UNK         0.0947 
    112 H112       23.0940    2.5022  -10.4483 H         1 UNK         0.0806 
    113 H113       22.8612    2.5961   -8.7102 H         1 UNK         0.0806 
    114 H114       23.5762    1.1531   -9.4266 H         1 UNK         0.0806 
    115 H115       26.3028    0.7097   -9.6298 H         1 UNK         0.3000 
    116 H116       27.1014    0.9809  -12.3879 H         1 UNK         0.0850 
    117 H117       28.4598   -1.0539  -11.8673 H         1 UNK         0.0810 
    118 H118       26.8182   -1.2268  -11.2675 H         1 UNK         0.0810 
    119 H119       28.1302   -0.8514  -10.1518 H         1 UNK         0.0810 
    120 H120       28.2984    2.4776   -9.5615 H         1 UNK         0.3040 
    121 H121       30.0883    3.5722   -8.9103 H         1 UNK         0.0766 
    122 H122       30.9027    3.7959  -11.8581 H         1 UNK         0.0812 
    123 H123       31.4795    4.7976  -10.5358 H         1 UNK         0.0812 
    124 H124       29.7952    4.8866  -11.0249 H         1 UNK         0.0812 
    125 H125       30.1719    0.8774   -8.6209 H         1 UNK         0.3205 
    126 H126       32.7965   -0.1795   -9.4501 H         1 UNK         0.0754 
    127 H127       31.9019   -2.2942   -8.5155 H         1 UNK         0.0769 
    128 H128       30.6916   -1.5790   -9.5607 H         1 UNK         0.0769 
    129 H129       30.5301   -1.4500   -7.8134 H         1 UNK         0.0769 
    130 H130       33.7528   -1.6001   -7.5915 H         1 UNK         0.2981 
    131 H131       34.9291    0.0668   -5.6526 H         1 UNK         0.0541 
    132 H132       31.8018   -1.2199   -5.2991 H         1 UNK         0.3459 
    133 H133       31.8080   -1.2529   -3.5494 H         1 UNK         0.3459 
    134 H134       35.8864   -2.3123   -4.8756 H         1 UNK         0.0612 
    135 H135       36.3994   -1.5338   -6.3310 H         1 UNK         0.0612 
    136 H136       35.4512   -4.7335   -4.8711 H         1 UNK         0.0624 
    137 H137       34.7062   -5.6873   -6.1270 H         1 UNK         0.0624 
@<TRIPOS>BOND
     1    1    2 1    
     2    1   72 1    
     3    1   73 1    
     4    1   74 1    
     5    2    3 2    
     6    2    4 am   BACKBONE|DICT|INTERRES
     7    4    5 1    
     8    4   75 1    
     9    5    6 1    
    10    5   35 1    
    11    5   76 1    
    12    6    7 1    
    13    6   77 1    
    14    6   78 1    
    15    7    8 1    
    16    8    9 1    
    17    8   79 1    
    18    8   80 1    
    19    9   10 ar   
    20    9   14 ar   
    21   10   11 ar   
    22   10   81 1    
    23   11   12 ar   
    24   11   71 1    
    25   12   13 ar   
    26   12   82 1    
    27   13   14 ar   
    28   13   15 1    
    29   14   83 1    
    30   15   16 1    
    31   15   84 1    
    32   15   85 1    
    33   16   17 1    
    34   17   18 1    
    35   17   86 1    
    36   17   87 1    
    37   18   19 1    
    38   18   37 1    
    39   18   88 1    
    40   19   20 am   BACKBONE|DICT|INTERRES
    41   19   89 1    
    42   20   21 2    
    43   20   22 1    
    44   22   23 1    
    45   22   24 1    
    46   22   90 1    
    47   23   91 1    
    48   23   92 1    
    49   23   93 1    
    50   24   25 am   BACKBONE|DICT|INTERRES
    51   24   94 1    
    52   25   26 2    
    53   25   27 1    
    54   27   28 1    
    55   27   29 1    
    56   27   95 1    
    57   28   96 1    
    58   28   97 1    
    59   28   98 1    
    60   29   30 am   BACKBONE|DICT|INTERRES
    61   29   99 1    
    62   30   31 2    
    63   30   32 1    
    64   32   33 1    
    65   32   34 1    
    66   32  100 1    
    67   33  101 1    
    68   33  102 1    
    69   33  103 1    
    70   34   35 am   BACKBONE|DICT|INTERRES
    71   34  104 1    
    72   35   36 2    
    73   37   38 2    
    74   37   39 am   BACKBONE|DICT|INTERRES
    75   39   40 1    
    76   39  105 1    
    77   40   41 1    
    78   40   42 1    
    79   40  106 1    
    80   41  107 1    
    81   41  108 1    
    82   41  109 1    
    83   42   43 2    
    84   42   44 am   BACKBONE|DICT|INTERRES
    85   44   45 1    
    86   44  110 1    
    87   45   46 1    
    88   45   47 1    
    89   45  111 1    
    90   46  112 1    
    91   46  113 1    
    92   46  114 1    
    93   47   48 2    
    94   47   49 am   BACKBONE|DICT|INTERRES
    95   49   50 1    
    96   49  115 1    
    97   50   51 1    
    98   50   52 1    
    99   50  116 1    
   100   51  117 1    
   101   51  118 1    
   102   51  119 1    
   103   52   53 2    
   104   52   54 am   BACKBONE|DICT|INTERRES
   105   54   55 1    
   106   54  120 1    
   107   55   56 1    
   108   55   57 1    
   109   55  121 1    
   110   56  122 1    
   111   56  123 1    
   112   56  124 1    
   113   57   58 2    
   114   57   59 am   BACKBONE|DICT|INTERRES
   115   59   60 1    
   116   59  125 1    
   117   60   61 1    
   118   60   62 1    
   119   60  126 1    
   120   61  127 1    
   121   61  128 1    
   122   61  129 1    
   123   62   63 2    
   124   62   64 am   BACKBONE|DICT|INTERRES
   125   64   65 1    
   126   64  130 1    
   127   65   66 1    
   128   65   69 1    
   129   65  131 1    
   130   66   67 am   BACKBONE|DICT|INTERRES
   131   66   68 2    
   132   67  132 1    
   133   67  133 1    
   134   69   70 1    
   135   69  134 1    
   136   69  135 1    
   137   70   71 1    
   138   71  136 1    
   139   71  137 1    
@<TRIPOS>SUBSTRUCTURE
     1 UNK         1 GROUP             0       ****    0 ROOT    
