@<TRIPOS>MOLECULE
3R137
137   139    1
SMALL
USER_CHARGES


@<TRIPOS>ATOM
      1 CA         27.8861   -6.1620   -7.4649 C.3       0 UNK        -0.2020 
      2 C          27.4888   -5.3491   -6.2424 C.2       0 UNK         0.4855 
      3 O          26.9296   -4.2649   -6.3918 O.2       0 UNK        -0.5197 
      4 N          27.7616   -5.8759   -5.0388 N.am      1 UNK        -0.4892 
      5 CA         27.5445   -5.2398   -3.7246 C.3       1 UNK         0.0835 
      6 C6         28.3989   -3.9570   -3.5130 C.3       12 UNK        -0.0855 
      7 S7         30.1824   -4.2696   -3.7422 S.3       12 UNK        -0.2931 
      8 C8         30.9126   -3.2852   -2.3930 C.3       12 UNK         0.0378 
      9 C9         30.8717   -1.7849   -2.6636 C.ar      12 UNK        -0.0802 
     10 C10        31.4236   -1.2671   -3.8401 C.ar      12 UNK        -0.0944 
     11 C11        31.4464    0.1106   -4.0687 C.ar      12 UNK        -0.0787 
     12 C12        30.9273    0.9762   -3.1048 C.ar      12 UNK        -0.0862 
     13 C13        30.3524    0.4750   -1.9333 C.ar      12 UNK        -0.0733 
     14 C14        30.3256   -0.9079   -1.7189 C.ar      12 UNK        -0.0832 
     15 C15        29.7814    1.4302   -0.8928 C.3       12 UNK         0.0240 
     16 S16        28.0136    1.7806   -1.1701 S.3       12 UNK        -0.2522 
     17 C17        28.0601    2.7860   -2.6933 C.3       12 UNK        -0.0967 
     18 CA         27.6482    1.9489   -3.9328 C.3       5 UNK         0.0660 
     19 N          26.2373    1.5332   -3.9132 N.am      5 UNK        -0.4015 
     20 C          25.1396    2.2987   -3.9676 C.2       4 UNK         0.4946 
     21 O          25.1670    3.5134   -4.1760 O.2       4 UNK        -0.5353 
     22 CA         23.7827    1.5984   -3.7320 C.3       4 UNK         0.0277 
     23 CB         22.5920    2.5649   -3.8858 C.3       4 UNK        -0.1981 
     24 N          23.5365    0.4225   -4.5758 N.am      4 UNK        -0.4209 
     25 C          24.1235   -0.7736   -4.4510 C.2       3 UNK         0.4942 
     26 O          25.0652   -0.9988   -3.6862 O.2       3 UNK        -0.5208 
     27 CA         23.5629   -1.9033   -5.3216 C.3       3 UNK         0.0250 
     28 CB         24.1859   -1.8957   -6.7285 C.3       3 UNK        -0.1990 
     29 N          23.8456   -3.1693   -4.6558 N.am      3 UNK        -0.4232 
     30 C          23.1956   -4.3240   -4.8309 C.2       2 UNK         0.4993 
     31 O          22.2525   -4.4582   -5.6134 O.2       2 UNK        -0.5286 
     32 CA         23.6887   -5.5299   -4.0011 C.3       2 UNK         0.0209 
     33 CB         23.0121   -6.8515   -4.4130 C.3       2 UNK        -0.1931 
     34 N          25.1425   -5.6975   -4.0909 N.am      2 UNK        -0.4546 
     35 C          26.0514   -5.0003   -3.3950 C.2       1 UNK         0.5154 
     36 O          25.7361   -4.1851   -2.5266 O.2       1 UNK        -0.5181 
     37 C          28.0745    2.6202   -5.2536 C.2       5 UNK         0.5014 
     38 O          28.8338    2.0240   -6.0179 O.2       5 UNK        -0.5248 
     39 N          27.5459    3.8149   -5.5438 N.am      6 UNK        -0.4434 
     40 CA         27.7266    4.5146   -6.8208 C.3       6 UNK         0.0363 
     41 CB         27.1265    5.9256   -6.7216 C.3       6 UNK        -0.1936 
     42 C          27.1098    3.7422   -8.0011 C.2       6 UNK         0.5081 
     43 O          27.6401    3.7947   -9.1099 O.2       6 UNK        -0.5248 
     44 N          26.0252    3.0061   -7.7226 N.am      7 UNK        -0.4718 
     45 CA         25.3958    2.0629   -8.6462 C.3       7 UNK         0.0273 
     46 CB         23.9369    1.8473   -8.2129 C.3       7 UNK        -0.1935 
     47 C          26.1436    0.7179   -8.7454 C.2       7 UNK         0.5018 
     48 O          25.9330   -0.0005   -9.7227 O.2       7 UNK        -0.5186 
     49 N          26.9844    0.3899   -7.7504 N.am      8 UNK        -0.4240 
     50 CA         27.8319   -0.8057   -7.7507 C.3       8 UNK         0.0235 
     51 CB         28.2141   -1.2069   -6.3144 C.3       8 UNK        -0.2000 
     52 C          29.0825   -0.5792   -8.6087 C.2       8 UNK         0.4941 
     53 O          29.3799   -1.4081   -9.4683 O.2       8 UNK        -0.5273 
     54 N          29.7818    0.5422   -8.3660 N.am      9 UNK        -0.4262 
     55 CA         30.9118    1.1187   -9.1188 C.3       9 UNK         0.0264 
     56 CB         30.4471    1.5571  -10.5204 C.3       9 UNK        -0.1955 
     57 C          32.2012    0.2740   -9.2248 C.2       9 UNK         0.5031 
     58 O          33.2762    0.8538   -9.3868 O.2       9 UNK        -0.5390 
     59 N          32.0950   -1.0569   -9.1196 N.am      10 UNK        -0.4204 
     60 CA         33.1595   -2.0593   -9.2720 C.3       10 UNK         0.0237 
     61 CB         32.5451   -3.4563   -9.0820 C.3       10 UNK        -0.1985 
     62 C          34.3842   -1.8883   -8.3520 C.2       10 UNK         0.4970 
     63 O          35.4455   -2.4327   -8.6590 O.2       10 UNK        -0.4914 
     64 N          34.2222   -1.1385   -7.2572 N.am      11 UNK        -0.4285 
     65 CA         35.2933   -0.7000   -6.3554 C.3       11 UNK         0.1007 
     66 C          36.3073    0.3028   -6.9859 C.2       11 UNK         0.5703 
     67 N          35.9946    0.9556   -8.1009 N.am      11 UNK        -0.7361 
     68 O          37.4023    0.4792   -6.4567 O.2       11 UNK        -0.4986 
     69 C69        34.7095   -0.1834   -5.0132 C.3       12 UNK        -0.0947 
     70 S70        33.6904    1.3277   -5.1726 S.3       12 UNK        -0.2240 
     71 C71        32.0055    0.6688   -5.3661 C.3       12 UNK         0.0194 
     72 H72        28.3691   -7.1006   -7.1938 H         1 UNK         0.0906 
     73 H73        27.0058   -6.3925   -8.0643 H         1 UNK         0.0906 
     74 H74        28.5785   -5.5905   -8.0827 H         1 UNK         0.0906 
     75 H75        28.2167   -6.7779   -4.9976 H         1 UNK         0.3140 
     76 H76        27.8757   -5.9705   -2.9848 H         1 UNK         0.1085 
     77 H77        28.0896   -3.1669   -4.1970 H         1 UNK         0.0836 
     78 H78        28.2440   -3.5575   -2.5091 H         1 UNK         0.0836 
     79 H79        30.4159   -3.5327   -1.4536 H         1 UNK         0.0731 
     80 H80        31.9550   -3.5834   -2.2731 H         1 UNK         0.0731 
     81 H81        31.8375   -1.9416   -4.5771 H         1 UNK         0.1312 
     82 H82        30.9648    2.0421   -3.2788 H         1 UNK         0.1406 
     83 H83        29.8938   -1.2977   -0.8069 H         1 UNK         0.1631 
     84 H84        30.3438    2.3653   -0.8840 H         1 UNK         0.0717 
     85 H85        29.8987    1.0011    0.1034 H         1 UNK         0.0717 
     86 H86        27.3941    3.6403   -2.5614 H         1 UNK         0.0934 
     87 H87        29.0568    3.2130   -2.8100 H         1 UNK         0.0934 
     88 H88        28.2087    1.0137   -3.8949 H         1 UNK         0.0739 
     89 H89        26.0771    0.5396   -3.7546 H         1 UNK         0.3093 
     90 H90        23.7943    1.2619   -2.6928 H         1 UNK         0.0818 
     91 H91        21.6488    2.0791   -3.6354 H         1 UNK         0.0819 
     92 H92        22.6938    3.4233   -3.2202 H         1 UNK         0.0819 
     93 H93        22.5137    2.9496   -4.9036 H         1 UNK         0.0819 
     94 H94        22.7870    0.5153   -5.2463 H         1 UNK         0.3041 
     95 H95        22.4807   -1.7783   -5.3990 H         1 UNK         0.0784 
     96 H96        23.9910   -0.9569   -7.2446 H         1 UNK         0.0793 
     97 H97        25.2661   -2.0336   -6.6880 H         1 UNK         0.0793 
     98 H98        23.7766   -2.6929   -7.3488 H         1 UNK         0.0793 
     99 H99        24.5888   -3.1216   -3.9634 H         1 UNK         0.3024 
    100 H100       23.4181   -5.3285   -2.9619 H         1 UNK         0.1171 
    101 H101       21.9285   -6.7880   -4.3036 H         1 UNK         0.0786 
    102 H102       23.3488   -7.6807   -3.7905 H         1 UNK         0.0786 
    103 H103       23.2215   -7.1050   -5.4530 H         1 UNK         0.0786 
    104 H104       25.4844   -6.3106   -4.8169 H         1 UNK         0.2977 
    105 H105       26.8260    4.1662   -4.9172 H         1 UNK         0.3127 
    106 H106       28.7987    4.6056   -7.0082 H         1 UNK         0.0770 
    107 H107       26.0567    5.8960   -6.5106 H         1 UNK         0.0814 
    108 H108       27.2606    6.4727   -7.6559 H         1 UNK         0.0814 
    109 H109       27.6081    6.5066   -5.9350 H         1 UNK         0.0814 
    110 H110       25.6424    3.0613   -6.7893 H         1 UNK         0.2983 
    111 H111       25.3916    2.5021   -9.6466 H         1 UNK         0.0947 
    112 H112       23.4348    1.1304   -8.8643 H         1 UNK         0.0806 
    113 H113       23.3698    2.7771   -8.2606 H         1 UNK         0.0806 
    114 H114       23.8710    1.4690   -7.1937 H         1 UNK         0.0806 
    115 H115       27.1646    1.0699   -7.0254 H         1 UNK         0.3000 
    116 H116       27.2682   -1.6346   -8.1853 H         1 UNK         0.0850 
    117 H117       28.7360   -2.1646   -6.3167 H         1 UNK         0.0810 
    118 H118       28.8799   -0.4918   -5.8345 H         1 UNK         0.0810 
    119 H119       27.3337   -1.3221   -5.6825 H         1 UNK         0.0810 
    120 H120       29.4624    1.1136   -7.5858 H         1 UNK         0.3040 
    121 H121       31.1898    2.0199   -8.5698 H         1 UNK         0.0766 
    122 H122       29.6046    2.2463  -10.4596 H         1 UNK         0.0812 
    123 H123       30.1408    0.7067  -11.1305 H         1 UNK         0.0812 
    124 H124       31.2468    2.0705  -11.0559 H         1 UNK         0.0812 
    125 H125       31.1416   -1.4148   -9.0898 H         1 UNK         0.3205 
    126 H126       33.5239   -1.9813  -10.2981 H         1 UNK         0.0754 
    127 H127       33.2927   -4.2382   -9.2237 H         1 UNK         0.0769 
    128 H128       31.7469   -3.6404   -9.8017 H         1 UNK         0.0769 
    129 H129       32.1286   -3.5793   -8.0812 H         1 UNK         0.0769 
    130 H130       33.3249   -0.7059   -7.1119 H         1 UNK         0.2981 
    131 H131       35.8779   -1.5910   -6.1191 H         1 UNK         0.0541 
    132 H132       36.6610    1.5966   -8.5000 H         1 UNK         0.3459 
    133 H133       35.0818    0.8431   -8.5307 H         1 UNK         0.3459 
    134 H134       35.5195    0.0347   -4.3151 H         1 UNK         0.0612 
    135 H135       34.1251   -0.9692   -4.5351 H         1 UNK         0.0612 
    136 H136       31.9759   -0.0876   -6.1488 H         1 UNK         0.0624 
    137 H137       31.3665    1.4806   -5.7133 H         1 UNK         0.0624 
@<TRIPOS>BOND
     1    1    2 1    
     2    1   72 1    
     3    1   73 1    
     4    1   74 1    
     5    2    3 2    
     6    2    4 am   BACKBONE|DICT|INTERRES
     7    4    5 1    
     8    4   75 1    
     9    5    6 1    
    10    5   35 1    
    11    5   76 1    
    12    6    7 1    
    13    6   77 1    
    14    6   78 1    
    15    7    8 1    
    16    8    9 1    
    17    8   79 1    
    18    8   80 1    
    19    9   10 ar   
    20    9   14 ar   
    21   10   11 ar   
    22   10   81 1    
    23   11   12 ar   
    24   11   71 1    
    25   12   13 ar   
    26   12   82 1    
    27   13   14 ar   
    28   13   15 1    
    29   14   83 1    
    30   15   16 1    
    31   15   84 1    
    32   15   85 1    
    33   16   17 1    
    34   17   18 1    
    35   17   86 1    
    36   17   87 1    
    37   18   19 1    
    38   18   37 1    
    39   18   88 1    
    40   19   20 am   BACKBONE|DICT|INTERRES
    41   19   89 1    
    42   20   21 2    
    43   20   22 1    
    44   22   23 1    
    45   22   24 1    
    46   22   90 1    
    47   23   91 1    
    48   23   92 1    
    49   23   93 1    
    50   24   25 am   BACKBONE|DICT|INTERRES
    51   24   94 1    
    52   25   26 2    
    53   25   27 1    
    54   27   28 1    
    55   27   29 1    
    56   27   95 1    
    57   28   96 1    
    58   28   97 1    
    59   28   98 1    
    60   29   30 am   BACKBONE|DICT|INTERRES
    61   29   99 1    
    62   30   31 2    
    63   30   32 1    
    64   32   33 1    
    65   32   34 1    
    66   32  100 1    
    67   33  101 1    
    68   33  102 1    
    69   33  103 1    
    70   34   35 am   BACKBONE|DICT|INTERRES
    71   34  104 1    
    72   35   36 2    
    73   37   38 2    
    74   37   39 am   BACKBONE|DICT|INTERRES
    75   39   40 1    
    76   39  105 1    
    77   40   41 1    
    78   40   42 1    
    79   40  106 1    
    80   41  107 1    
    81   41  108 1    
    82   41  109 1    
    83   42   43 2    
    84   42   44 am   BACKBONE|DICT|INTERRES
    85   44   45 1    
    86   44  110 1    
    87   45   46 1    
    88   45   47 1    
    89   45  111 1    
    90   46  112 1    
    91   46  113 1    
    92   46  114 1    
    93   47   48 2    
    94   47   49 am   BACKBONE|DICT|INTERRES
    95   49   50 1    
    96   49  115 1    
    97   50   51 1    
    98   50   52 1    
    99   50  116 1    
   100   51  117 1    
   101   51  118 1    
   102   51  119 1    
   103   52   53 2    
   104   52   54 am   BACKBONE|DICT|INTERRES
   105   54   55 1    
   106   54  120 1    
   107   55   56 1    
   108   55   57 1    
   109   55  121 1    
   110   56  122 1    
   111   56  123 1    
   112   56  124 1    
   113   57   58 2    
   114   57   59 am   BACKBONE|DICT|INTERRES
   115   59   60 1    
   116   59  125 1    
   117   60   61 1    
   118   60   62 1    
   119   60  126 1    
   120   61  127 1    
   121   61  128 1    
   122   61  129 1    
   123   62   63 2    
   124   62   64 am   BACKBONE|DICT|INTERRES
   125   64   65 1    
   126   64  130 1    
   127   65   66 1    
   128   65   69 1    
   129   65  131 1    
   130   66   67 am   BACKBONE|DICT|INTERRES
   131   66   68 2    
   132   67  132 1    
   133   67  133 1    
   134   69   70 1    
   135   69  134 1    
   136   69  135 1    
   137   70   71 1    
   138   71  136 1    
   139   71  137 1    
@<TRIPOS>SUBSTRUCTURE
     1 UNK         1 GROUP             0       ****    0 ROOT    
