@<TRIPOS>MOLECULE
3R137
137   139    1
SMALL
USER_CHARGES


@<TRIPOS>ATOM
      1 CA         27.5024   -5.7594    3.0694 C.3       0 UNK        -0.2020 
      2 C          27.7151   -4.2675    2.8611 C.2       0 UNK         0.4855 
      3 O          28.0114   -3.5507    3.8175 O.2       0 UNK        -0.5197 
      4 N          27.5617   -3.7938    1.6223 N.am      1 UNK        -0.4892 
      5 CA         27.7071   -2.3969    1.2185 C.3       1 UNK         0.0835 
      6 C6         29.1966   -1.9488    1.1148 C.3       12 UNK        -0.0855 
      7 S7         30.1906   -2.8636   -0.1238 S.3       12 UNK        -0.2931 
      8 C8         30.2537   -1.6656   -1.4987 C.3       12 UNK         0.0378 
      9 C9         30.2684   -2.3608   -2.8528 C.ar      12 UNK        -0.0802 
     10 C10        31.3824   -2.2681   -3.6923 C.ar      12 UNK        -0.0944 
     11 C11        31.3799   -2.8887   -4.9462 C.ar      12 UNK        -0.0787 
     12 C12        30.2487   -3.6017   -5.3622 C.ar      12 UNK        -0.0862 
     13 C13        29.1353   -3.7149   -4.5233 C.ar      12 UNK        -0.0733 
     14 C14        29.1512   -3.0867   -3.2759 C.ar      12 UNK        -0.0832 
     15 C15        27.9360   -4.5656   -4.9177 C.3       12 UNK         0.0240 
     16 S16        26.4895   -3.5578   -5.3733 S.3       12 UNK        -0.2522 
     17 C17        26.5979   -3.5194   -7.2016 C.3       12 UNK        -0.0967 
     18 CA         26.4244   -2.1079   -7.8177 C.3       5 UNK         0.0660 
     19 N          25.2109   -1.4414   -7.3313 N.am      5 UNK        -0.4015 
     20 C          24.7870   -0.2026   -7.6106 C.2       4 UNK         0.4946 
     21 O          25.3886    0.5737   -8.3537 O.2       4 UNK        -0.5353 
     22 CA         23.4995    0.2812   -6.9139 C.3       4 UNK         0.0277 
     23 CB         22.2658    0.0271   -7.8014 C.3       4 UNK        -0.1981 
     24 N          23.3050   -0.2300   -5.5436 N.am      4 UNK        -0.4209 
     25 C          23.0563   -1.4857   -5.1395 C.2       3 UNK         0.4942 
     26 O          22.9399   -2.4419   -5.9066 O.2       3 UNK        -0.5208 
     27 CA         23.0678   -1.7136   -3.6229 C.3       3 UNK         0.0250 
     28 CB         22.6587   -3.1429   -3.2164 C.3       3 UNK        -0.1990 
     29 N          24.4236   -1.4350   -3.1598 N.am      3 UNK        -0.4232 
     30 C          24.7567   -0.8911   -1.9861 C.2       2 UNK         0.4993 
     31 O          23.9536   -0.6098   -1.0938 O.2       2 UNK        -0.5286 
     32 CA         26.2440   -0.5436   -1.8133 C.3       2 UNK         0.0209 
     33 CB         26.4693    0.9632   -2.0196 C.3       2 UNK        -0.1931 
     34 N          26.7769   -0.9306   -0.5072 N.am      2 UNK        -0.4546 
     35 C          26.9336   -2.1956   -0.0973 C.2       1 UNK         0.5154 
     36 O          26.5498   -3.1785   -0.7400 O.2       1 UNK        -0.5181 
     37 C          27.7062   -1.2677   -7.6643 C.2       5 UNK         0.5014 
     38 O          28.4840   -1.1811   -8.6139 O.2       5 UNK        -0.5248 
     39 N          27.8758   -0.6334   -6.4958 N.am      6 UNK        -0.4434 
     40 CA         29.0152    0.2257   -6.1736 C.3       6 UNK         0.0363 
     41 CB         28.9452    0.6446   -4.6982 C.3       6 UNK        -0.1936 
     42 C          29.1109    1.4682   -7.0721 C.2       6 UNK         0.5081 
     43 O          30.2173    1.8722   -7.4249 O.2       6 UNK        -0.5248 
     44 N          27.9579    2.0425   -7.4395 N.am      7 UNK        -0.4718 
     45 CA         27.8702    3.1732   -8.3621 C.3       7 UNK         0.0273 
     46 CB         26.5310    3.9029   -8.1681 C.3       7 UNK        -0.1935 
     47 C          28.0454    2.7187   -9.8175 C.2       7 UNK         0.5018 
     48 O          28.7765    3.3672  -10.5653 O.2       7 UNK        -0.5186 
     49 N          27.3952    1.6035  -10.1813 N.am      8 UNK        -0.4240 
     50 CA         27.4319    1.0069  -11.5189 C.3       8 UNK         0.0235 
     51 CB         26.4222   -0.1496  -11.5939 C.3       8 UNK        -0.2000 
     52 C          28.8342    0.5359  -11.9397 C.2       8 UNK         0.4941 
     53 O          29.2512    0.8160  -13.0642 O.2       8 UNK        -0.5273 
     54 N          29.5403   -0.1520  -11.0322 N.am      9 UNK        -0.4262 
     55 CA         30.9069   -0.6380  -11.2434 C.3       9 UNK         0.0264 
     56 CB         31.1141   -1.9171  -10.4163 C.3       9 UNK        -0.1955 
     57 C          31.9882    0.4109  -10.9184 C.2       9 UNK         0.5031 
     58 O          33.1579    0.1567  -11.2103 O.2       9 UNK        -0.5390 
     59 N          31.5926    1.5540  -10.3347 N.am      10 UNK        -0.4204 
     60 CA         32.4340    2.6752   -9.8956 C.3       10 UNK         0.0237 
     61 CB         33.0661    3.3968  -11.1050 C.3       10 UNK        -0.1985 
     62 C          33.4653    2.2490   -8.8320 C.2       10 UNK         0.4970 
     63 O          34.6658    2.4767   -8.9958 O.2       10 UNK        -0.4914 
     64 N          32.9631    1.6227   -7.7631 N.am      11 UNK        -0.4285 
     65 CA         33.7446    1.1128   -6.6262 C.3       11 UNK         0.1007 
     66 C          34.2170    2.2126   -5.6321 C.2       11 UNK         0.5703 
     67 N          33.7131    3.4395   -5.7041 N.am      11 UNK        -0.7361 
     68 O          35.0659    1.9484   -4.7839 O.2       11 UNK        -0.4986 
     69 C69        32.9899   -0.0195   -5.8802 C.3       12 UNK        -0.0947 
     70 S70        32.5777   -1.4182   -6.9767 S.3       12 UNK        -0.2240 
     71 C71        32.6170   -2.8295   -5.8318 C.3       12 UNK         0.0194 
     72 H72        27.2465   -6.2679    2.1403 H         1 UNK         0.0906 
     73 H73        28.4089   -6.2153    3.4661 H         1 UNK         0.0906 
     74 H74        26.6957   -5.9284    3.7819 H         1 UNK         0.0906 
     75 H75        27.2734   -4.3968    0.8599 H         1 UNK         0.3140 
     76 H76        27.2093   -1.7795    1.9699 H         1 UNK         0.1085 
     77 H77        29.2617   -0.8775    0.9176 H         1 UNK         0.0836 
     78 H78        29.6799   -2.0818    2.0838 H         1 UNK         0.0836 
     79 H79        29.3927   -0.9986   -1.4667 H         1 UNK         0.0731 
     80 H80        31.1329   -1.0315   -1.3742 H         1 UNK         0.0731 
     81 H81        32.2551   -1.7176   -3.3691 H         1 UNK         0.1312 
     82 H82        30.2482   -4.0908   -6.3267 H         1 UNK         0.1406 
     83 H83        28.2951   -3.1812   -2.6235 H         1 UNK         0.1631 
     84 H84        27.6586   -5.1932   -4.0694 H         1 UNK         0.0717 
     85 H85        28.1911   -5.2561   -5.7227 H         1 UNK         0.0717 
     86 H86        27.5351   -3.9682   -7.5373 H         1 UNK         0.0934 
     87 H87        25.8140   -4.1750   -7.5841 H         1 UNK         0.0934 
     88 H88        26.2776   -2.2415   -8.8908 H         1 UNK         0.0739 
     89 H89        24.5965   -2.0093   -6.7544 H         1 UNK         0.3093 
     90 H90        23.6030    1.3625   -6.8084 H         1 UNK         0.0818 
     91 H91        21.3604    0.4292   -7.3468 H         1 UNK         0.0819 
     92 H92        22.3820    0.5096   -8.7728 H         1 UNK         0.0819 
     93 H93        22.1048   -1.0350   -7.9878 H         1 UNK         0.0819 
     94 H94        23.4213    0.4653   -4.8185 H         1 UNK         0.3041 
     95 H95        22.3645   -1.0063   -3.1778 H         1 UNK         0.0784 
     96 H96        21.6592   -3.3822   -3.5814 H         1 UNK         0.0793 
     97 H97        23.3444   -3.8886   -3.6211 H         1 UNK         0.0793 
     98 H98        22.6454   -3.2566   -2.1323 H         1 UNK         0.0793 
     99 H99        25.1530   -1.6565   -3.8232 H         1 UNK         0.3024 
    100 H100       26.8186   -1.0812   -2.5708 H         1 UNK         0.1171 
    101 H101       27.5281    1.2188   -1.9716 H         1 UNK         0.0786 
    102 H102       26.1010    1.2858   -2.9942 H         1 UNK         0.0786 
    103 H103       25.9478    1.5545   -1.2657 H         1 UNK         0.0786 
    104 H104       27.0752   -0.1780    0.0961 H         1 UNK         0.2977 
    105 H105       27.1908   -0.7831   -5.7721 H         1 UNK         0.3127 
    106 H106       29.9178   -0.3680   -6.3225 H         1 UNK         0.0770 
    107 H107       28.0862    1.2865   -4.5035 H         1 UNK         0.0814 
    108 H108       29.8382    1.2008   -4.4103 H         1 UNK         0.0814 
    109 H109       28.8780   -0.2201   -4.0404 H         1 UNK         0.0814 
    110 H110       27.0874    1.6051   -7.1694 H         1 UNK         0.2983 
    111 H111       28.6738    3.8771   -8.1326 H         1 UNK         0.0947 
    112 H112       26.4598    4.7659   -8.8315 H         1 UNK         0.0806 
    113 H113       26.4250    4.2704   -7.1474 H         1 UNK         0.0806 
    114 H114       25.6783    3.2577   -8.3821 H         1 UNK         0.0806 
    115 H115       26.7887    1.1561   -9.4972 H         1 UNK         0.3000 
    116 H116       27.1179    1.7770  -12.2267 H         1 UNK         0.0850 
    117 H117       26.3956   -0.5804  -12.5957 H         1 UNK         0.0810 
    118 H118       25.4129    0.1885  -11.3581 H         1 UNK         0.0810 
    119 H119       26.6760   -0.9512  -10.9003 H         1 UNK         0.0810 
    120 H120       29.1097   -0.3874  -10.1375 H         1 UNK         0.3040 
    121 H121       31.0302   -0.9032  -12.2956 H         1 UNK         0.0766 
    122 H122       30.9722   -1.7314   -9.3526 H         1 UNK         0.0812 
    123 H123       32.1209   -2.3156  -10.5473 H         1 UNK         0.0812 
    124 H124       30.4138   -2.6980  -10.7127 H         1 UNK         0.0812 
    125 H125       30.6065    1.6525  -10.1351 H         1 UNK         0.3205 
    126 H126       31.7636    3.3839   -9.4065 H         1 UNK         0.0754 
    127 H127       33.6075    4.2886  -10.7871 H         1 UNK         0.0769 
    128 H128       32.3039    3.7167  -11.8158 H         1 UNK         0.0769 
    129 H129       33.7737    2.7595  -11.6362 H         1 UNK         0.0769 
    130 H130       31.9509    1.5398   -7.6810 H         1 UNK         0.2981 
    131 H131       34.6580    0.6757   -7.0339 H         1 UNK         0.0541 
    132 H132       33.0104    3.6618   -6.3904 H         1 UNK         0.3459 
    133 H133       34.0320    4.1439   -5.0579 H         1 UNK         0.3459 
    134 H134       32.0685    0.3589   -5.4357 H         1 UNK         0.0612 
    135 H135       33.5983   -0.3953   -5.0559 H         1 UNK         0.0612 
    136 H136       33.5227   -2.7891   -5.2250 H         1 UNK         0.0624 
    137 H137       32.6902   -3.7462   -6.4187 H         1 UNK         0.0624 
@<TRIPOS>BOND
     1    1    2 1    
     2    1   72 1    
     3    1   73 1    
     4    1   74 1    
     5    2    3 2    
     6    2    4 am   BACKBONE|DICT|INTERRES
     7    4    5 1    
     8    4   75 1    
     9    5    6 1    
    10    5   35 1    
    11    5   76 1    
    12    6    7 1    
    13    6   77 1    
    14    6   78 1    
    15    7    8 1    
    16    8    9 1    
    17    8   79 1    
    18    8   80 1    
    19    9   10 ar   
    20    9   14 ar   
    21   10   11 ar   
    22   10   81 1    
    23   11   12 ar   
    24   11   71 1    
    25   12   13 ar   
    26   12   82 1    
    27   13   14 ar   
    28   13   15 1    
    29   14   83 1    
    30   15   16 1    
    31   15   84 1    
    32   15   85 1    
    33   16   17 1    
    34   17   18 1    
    35   17   86 1    
    36   17   87 1    
    37   18   19 1    
    38   18   37 1    
    39   18   88 1    
    40   19   20 am   BACKBONE|DICT|INTERRES
    41   19   89 1    
    42   20   21 2    
    43   20   22 1    
    44   22   23 1    
    45   22   24 1    
    46   22   90 1    
    47   23   91 1    
    48   23   92 1    
    49   23   93 1    
    50   24   25 am   BACKBONE|DICT|INTERRES
    51   24   94 1    
    52   25   26 2    
    53   25   27 1    
    54   27   28 1    
    55   27   29 1    
    56   27   95 1    
    57   28   96 1    
    58   28   97 1    
    59   28   98 1    
    60   29   30 am   BACKBONE|DICT|INTERRES
    61   29   99 1    
    62   30   31 2    
    63   30   32 1    
    64   32   33 1    
    65   32   34 1    
    66   32  100 1    
    67   33  101 1    
    68   33  102 1    
    69   33  103 1    
    70   34   35 am   BACKBONE|DICT|INTERRES
    71   34  104 1    
    72   35   36 2    
    73   37   38 2    
    74   37   39 am   BACKBONE|DICT|INTERRES
    75   39   40 1    
    76   39  105 1    
    77   40   41 1    
    78   40   42 1    
    79   40  106 1    
    80   41  107 1    
    81   41  108 1    
    82   41  109 1    
    83   42   43 2    
    84   42   44 am   BACKBONE|DICT|INTERRES
    85   44   45 1    
    86   44  110 1    
    87   45   46 1    
    88   45   47 1    
    89   45  111 1    
    90   46  112 1    
    91   46  113 1    
    92   46  114 1    
    93   47   48 2    
    94   47   49 am   BACKBONE|DICT|INTERRES
    95   49   50 1    
    96   49  115 1    
    97   50   51 1    
    98   50   52 1    
    99   50  116 1    
   100   51  117 1    
   101   51  118 1    
   102   51  119 1    
   103   52   53 2    
   104   52   54 am   BACKBONE|DICT|INTERRES
   105   54   55 1    
   106   54  120 1    
   107   55   56 1    
   108   55   57 1    
   109   55  121 1    
   110   56  122 1    
   111   56  123 1    
   112   56  124 1    
   113   57   58 2    
   114   57   59 am   BACKBONE|DICT|INTERRES
   115   59   60 1    
   116   59  125 1    
   117   60   61 1    
   118   60   62 1    
   119   60  126 1    
   120   61  127 1    
   121   61  128 1    
   122   61  129 1    
   123   62   63 2    
   124   62   64 am   BACKBONE|DICT|INTERRES
   125   64   65 1    
   126   64  130 1    
   127   65   66 1    
   128   65   69 1    
   129   65  131 1    
   130   66   67 am   BACKBONE|DICT|INTERRES
   131   66   68 2    
   132   67  132 1    
   133   67  133 1    
   134   69   70 1    
   135   69  134 1    
   136   69  135 1    
   137   70   71 1    
   138   71  136 1    
   139   71  137 1    
@<TRIPOS>SUBSTRUCTURE
     1 UNK         1 GROUP             0       ****    0 ROOT    
