@<TRIPOS>MOLECULE
3R137
137   139    1
SMALL
USER_CHARGES


@<TRIPOS>ATOM
      1 CA         22.7732   -4.2770   -1.7175 C.3       0 UNK        -0.2020 
      2 C          23.9650   -3.4314   -1.2975 C.2       0 UNK         0.4855 
      3 O          23.7841   -2.2961   -0.8560 O.2       0 UNK        -0.5197 
      4 N          25.1858   -3.9678   -1.4331 N.am      1 UNK        -0.4892 
      5 CA         26.4355   -3.2648   -1.1252 C.3       1 UNK         0.0835 
      6 C6         27.6508   -4.2222   -1.1358 C.3       12 UNK        -0.0855 
      7 S7         29.0625   -3.5554   -0.1858 S.3       12 UNK        -0.2931 
      8 C8         30.4435   -4.5997   -0.7581 C.3       12 UNK         0.0378 
      9 C9         30.8635   -4.2495   -2.1780 C.ar      12 UNK        -0.0802 
     10 C10        31.7357   -3.1807   -2.4156 C.ar      12 UNK        -0.0944 
     11 C11        32.0828   -2.8264   -3.7240 C.ar      12 UNK        -0.0787 
     12 C12        31.5570   -3.5556   -4.7930 C.ar      12 UNK        -0.0862 
     13 C13        30.6726   -4.6138   -4.5672 C.ar      12 UNK        -0.0733 
     14 C14        30.3521   -4.9748   -3.2576 C.ar      12 UNK        -0.0832 
     15 C15        29.9954   -5.3101   -5.7380 C.3       12 UNK         0.0240 
     16 S16        28.3112   -4.6559   -5.9983 S.3       12 UNK        -0.2522 
     17 C17        28.6649   -2.8749   -6.1706 C.3       12 UNK        -0.0967 
     18 CA         27.5404   -2.0888   -6.8770 C.3       5 UNK         0.0660 
     19 N          26.2878   -2.1141   -6.1231 N.am      5 UNK        -0.4015 
     20 C          25.0753   -2.0172   -6.6826 C.2       4 UNK         0.4946 
     21 O          24.8826   -1.7537   -7.8698 O.2       4 UNK        -0.5353 
     22 CA         23.8738   -2.2919   -5.7701 C.3       4 UNK         0.0277 
     23 CB         23.8813   -3.7464   -5.2662 C.3       4 UNK        -0.1981 
     24 N          23.8668   -1.3756   -4.6336 N.am      4 UNK        -0.4209 
     25 C          23.1564   -0.2403   -4.5786 C.2       3 UNK         0.4942 
     26 O          22.3804    0.1274   -5.4613 O.2       3 UNK        -0.5208 
     27 CA         23.3290    0.6427   -3.3286 C.3       3 UNK         0.0250 
     28 CB         22.1520    0.4443   -2.3599 C.3       3 UNK        -0.1990 
     29 N          24.5908    0.4100   -2.6197 N.am      3 UNK        -0.4232 
     30 C          25.7920    0.7592   -3.1027 C.2       2 UNK         0.4993 
     31 O          25.9498    1.3268   -4.1820 O.2       2 UNK        -0.5286 
     32 CA         27.0304    0.3676   -2.2761 C.3       2 UNK         0.0209 
     33 CB         27.4103    1.4964   -1.3052 C.3       2 UNK        -0.1931 
     34 N          26.8783   -0.8860   -1.5334 N.am      2 UNK        -0.4546 
     35 C          26.6293   -2.0784   -2.0907 C.2       1 UNK         0.5154 
     36 O          26.5094   -2.2540   -3.3079 O.2       1 UNK        -0.5181 
     37 C          27.9982   -0.6528   -7.1779 C.2       5 UNK         0.5014 
     38 O          28.1781   -0.3108   -8.3464 O.2       5 UNK        -0.5248 
     39 N          28.2022    0.1636   -6.1313 N.am      6 UNK        -0.4434 
     40 CA         28.7863    1.5105   -6.2420 C.3       6 UNK         0.0363 
     41 CB         29.1995    2.0419   -4.8610 C.3       6 UNK        -0.1936 
     42 C          27.9004    2.5217   -6.9923 C.2       6 UNK         0.5081 
     43 O          28.4134    3.5300   -7.4775 O.2       6 UNK        -0.5248 
     44 N          26.6106    2.1996   -7.1577 N.am      7 UNK        -0.4718 
     45 CA         25.6820    2.8514   -8.0856 C.3       7 UNK         0.0273 
     46 CB         24.2906    2.2208   -7.9160 C.3       7 UNK        -0.1935 
     47 C          26.1316    2.7845   -9.5623 C.2       7 UNK         0.5018 
     48 O          25.7467    3.6553  -10.3430 O.2       7 UNK        -0.5186 
     49 N          26.9569    1.7857   -9.9091 N.am      8 UNK        -0.4240 
     50 CA         27.6284    1.6291  -11.1999 C.3       8 UNK         0.0235 
     51 CB         27.2630    0.2511  -11.7826 C.3       8 UNK        -0.2000 
     52 C          29.1529    1.8081  -11.0446 C.2       8 UNK         0.4941 
     53 O          29.9200    1.1761  -11.7743 O.2       8 UNK        -0.5273 
     54 N          29.5742    2.6506  -10.0879 N.am      9 UNK        -0.4262 
     55 CA         30.9470    2.9906   -9.6880 C.3       9 UNK         0.0264 
     56 CB         31.7617    3.5945  -10.8491 C.3       9 UNK        -0.1955 
     57 C          31.7019    1.8393   -9.0034 C.2       9 UNK         0.5031 
     58 O          32.1907    2.0320   -7.8889 O.2       9 UNK        -0.5390 
     59 N          31.7716    0.6772   -9.6678 N.am      10 UNK        -0.4204 
     60 CA         32.3944   -0.5810   -9.2386 C.3       10 UNK         0.0237 
     61 CB         31.4749   -1.3172   -8.2437 C.3       10 UNK        -0.1985 
     62 C          33.8354   -0.4006   -8.7225 C.2       10 UNK         0.4970 
     63 O          34.7560   -0.3141   -9.5364 O.2       10 UNK        -0.4914 
     64 N          33.9990   -0.3446   -7.3939 N.am      11 UNK        -0.4285 
     65 CA         35.2730   -0.0923   -6.7031 C.3       11 UNK         0.1007 
     66 C          35.8527    1.3354   -6.9295 C.2       11 UNK         0.5703 
     67 N          35.0583    2.3188   -7.3382 N.am      11 UNK        -0.7361 
     68 O          37.0461    1.5505   -6.7305 O.2       11 UNK        -0.4986 
     69 C69        35.1863   -0.3961   -5.1816 C.3       12 UNK        -0.0947 
     70 S70        34.5347   -2.0572   -4.7916 S.3       12 UNK        -0.2240 
     71 C71        32.9588   -1.6119   -3.9960 C.3       12 UNK         0.0194 
     72 H72        22.1928   -4.5659   -0.8419 H         1 UNK         0.0906 
     73 H73        23.0796   -5.1834   -2.2392 H         1 UNK         0.0906 
     74 H74        22.1245   -3.7061   -2.3813 H         1 UNK         0.0906 
     75 H75        25.2836   -4.8938   -1.8245 H         1 UNK         0.3140 
     76 H76        26.3231   -2.8727   -0.1114 H         1 UNK         0.1085 
     77 H77        27.3822   -5.1761   -0.6788 H         1 UNK         0.0836 
     78 H78        27.9452   -4.4504   -2.1603 H         1 UNK         0.0836 
     79 H79        30.1623   -5.6515   -0.6851 H         1 UNK         0.0731 
     80 H80        31.2906   -4.4642   -0.0839 H         1 UNK         0.0731 
     81 H81        32.1189   -2.6086   -1.5816 H         1 UNK         0.1312 
     82 H82        31.8067   -3.2695   -5.8041 H         1 UNK         0.1406 
     83 H83        29.6630   -5.7903   -3.0840 H         1 UNK         0.1631 
     84 H84        29.9395   -6.3837   -5.5520 H         1 UNK         0.0717 
     85 H85        30.5786   -5.1851   -6.6517 H         1 UNK         0.0717 
     86 H86        28.8589   -2.4669   -5.1762 H         1 UNK         0.0934 
     87 H87        29.5927   -2.7779   -6.7346 H         1 UNK         0.0934 
     88 H88        27.3676   -2.5728   -7.8414 H         1 UNK         0.0739 
     89 H89        26.3633   -2.3090   -5.1262 H         1 UNK         0.3093 
     90 H90        22.9683   -2.1568   -6.3661 H         1 UNK         0.0818 
     91 H91        23.9508   -4.4471   -6.0994 H         1 UNK         0.0819 
     92 H92        24.7203   -3.9497   -4.5997 H         1 UNK         0.0819 
     93 H93        22.9625   -3.9789   -4.7290 H         1 UNK         0.0819 
     94 H94        24.5200   -1.5741   -3.8863 H         1 UNK         0.3041 
     95 H95        23.3197    1.6823   -3.6638 H         1 UNK         0.0784 
     96 H96        21.2043    0.6786   -2.8467 H         1 UNK         0.0793 
     97 H97        22.0878   -0.5848   -2.0055 H         1 UNK         0.0793 
     98 H98        22.2377    1.0955   -1.4899 H         1 UNK         0.0793 
     99 H99        24.5393   -0.0941   -1.7437 H         1 UNK         0.3024 
    100 H100       27.8565    0.2258   -2.9742 H         1 UNK         0.1171 
    101 H101       28.3482    1.2807   -0.7930 H         1 UNK         0.0786 
    102 H102       27.5432    2.4410   -1.8347 H         1 UNK         0.0786 
    103 H103       26.6414    1.6542   -0.5478 H         1 UNK         0.0786 
    104 H104       26.9614   -0.8277   -0.5282 H         1 UNK         0.2977 
    105 H105       27.9668   -0.1600   -5.2055 H         1 UNK         0.3127 
    106 H106       29.6993    1.4055   -6.8304 H         1 UNK         0.0770 
    107 H107       28.3380    2.2970   -4.2466 H         1 UNK         0.0814 
    108 H108       29.7921    2.9517   -4.9662 H         1 UNK         0.0814 
    109 H109       29.8119    1.3222   -4.3179 H         1 UNK         0.0814 
    110 H110       26.2671    1.3896   -6.6595 H         1 UNK         0.2983 
    111 H111       25.6233    3.9063   -7.8094 H         1 UNK         0.0947 
    112 H112       24.2973    1.1569   -8.1585 H         1 UNK         0.0806 
    113 H113       23.5609    2.7006   -8.5697 H         1 UNK         0.0806 
    114 H114       23.9276    2.3269   -6.8932 H         1 UNK         0.0806 
    115 H115       27.2389    1.1119   -9.1995 H         1 UNK         0.3000 
    116 H116       27.2921    2.3958  -11.9006 H         1 UNK         0.0850 
    117 H117       27.6941    0.1153  -12.7753 H         1 UNK         0.0810 
    118 H118       26.1835    0.1369  -11.8815 H         1 UNK         0.0810 
    119 H119       27.6291   -0.5599  -11.1513 H         1 UNK         0.0810 
    120 H120       28.8650    3.0702   -9.4963 H         1 UNK         0.3040 
    121 H121       30.8372    3.7739   -8.9359 H         1 UNK         0.0766 
    122 H122       31.9353    2.8772  -11.6514 H         1 UNK         0.0812 
    123 H123       32.7396    3.9298  -10.5010 H         1 UNK         0.0812 
    124 H124       31.2567    4.4601  -11.2777 H         1 UNK         0.0812 
    125 H125       31.3051    0.6577  -10.5727 H         1 UNK         0.3205 
    126 H126       32.4697   -1.2040  -10.1312 H         1 UNK         0.0754 
    127 H127       31.9339   -2.2447   -7.9006 H         1 UNK         0.0769 
    128 H128       30.5358   -1.5885   -8.7254 H         1 UNK         0.0769 
    129 H129       31.2352   -0.7112   -7.3693 H         1 UNK         0.0769 
    130 H130       33.1787   -0.3787   -6.8099 H         1 UNK         0.2981 
    131 H131       36.0002   -0.7849   -7.1309 H         1 UNK         0.0541 
    132 H132       34.0670    2.1546   -7.4921 H         1 UNK         0.3459 
    133 H133       35.4445    3.2377   -7.4815 H         1 UNK         0.3459 
    134 H134       34.5766    0.3580   -4.6801 H         1 UNK         0.0612 
    135 H135       36.1774   -0.3251   -4.7297 H         1 UNK         0.0612 
    136 H136       32.4102   -0.9220   -4.6390 H         1 UNK         0.0624 
    137 H137       33.1702   -1.0727   -3.0712 H         1 UNK         0.0624 
@<TRIPOS>BOND
     1    1    2 1    
     2    1   72 1    
     3    1   73 1    
     4    1   74 1    
     5    2    3 2    
     6    2    4 am   BACKBONE|DICT|INTERRES
     7    4    5 1    
     8    4   75 1    
     9    5    6 1    
    10    5   35 1    
    11    5   76 1    
    12    6    7 1    
    13    6   77 1    
    14    6   78 1    
    15    7    8 1    
    16    8    9 1    
    17    8   79 1    
    18    8   80 1    
    19    9   10 ar   
    20    9   14 ar   
    21   10   11 ar   
    22   10   81 1    
    23   11   12 ar   
    24   11   71 1    
    25   12   13 ar   
    26   12   82 1    
    27   13   14 ar   
    28   13   15 1    
    29   14   83 1    
    30   15   16 1    
    31   15   84 1    
    32   15   85 1    
    33   16   17 1    
    34   17   18 1    
    35   17   86 1    
    36   17   87 1    
    37   18   19 1    
    38   18   37 1    
    39   18   88 1    
    40   19   20 am   BACKBONE|DICT|INTERRES
    41   19   89 1    
    42   20   21 2    
    43   20   22 1    
    44   22   23 1    
    45   22   24 1    
    46   22   90 1    
    47   23   91 1    
    48   23   92 1    
    49   23   93 1    
    50   24   25 am   BACKBONE|DICT|INTERRES
    51   24   94 1    
    52   25   26 2    
    53   25   27 1    
    54   27   28 1    
    55   27   29 1    
    56   27   95 1    
    57   28   96 1    
    58   28   97 1    
    59   28   98 1    
    60   29   30 am   BACKBONE|DICT|INTERRES
    61   29   99 1    
    62   30   31 2    
    63   30   32 1    
    64   32   33 1    
    65   32   34 1    
    66   32  100 1    
    67   33  101 1    
    68   33  102 1    
    69   33  103 1    
    70   34   35 am   BACKBONE|DICT|INTERRES
    71   34  104 1    
    72   35   36 2    
    73   37   38 2    
    74   37   39 am   BACKBONE|DICT|INTERRES
    75   39   40 1    
    76   39  105 1    
    77   40   41 1    
    78   40   42 1    
    79   40  106 1    
    80   41  107 1    
    81   41  108 1    
    82   41  109 1    
    83   42   43 2    
    84   42   44 am   BACKBONE|DICT|INTERRES
    85   44   45 1    
    86   44  110 1    
    87   45   46 1    
    88   45   47 1    
    89   45  111 1    
    90   46  112 1    
    91   46  113 1    
    92   46  114 1    
    93   47   48 2    
    94   47   49 am   BACKBONE|DICT|INTERRES
    95   49   50 1    
    96   49  115 1    
    97   50   51 1    
    98   50   52 1    
    99   50  116 1    
   100   51  117 1    
   101   51  118 1    
   102   51  119 1    
   103   52   53 2    
   104   52   54 am   BACKBONE|DICT|INTERRES
   105   54   55 1    
   106   54  120 1    
   107   55   56 1    
   108   55   57 1    
   109   55  121 1    
   110   56  122 1    
   111   56  123 1    
   112   56  124 1    
   113   57   58 2    
   114   57   59 am   BACKBONE|DICT|INTERRES
   115   59   60 1    
   116   59  125 1    
   117   60   61 1    
   118   60   62 1    
   119   60  126 1    
   120   61  127 1    
   121   61  128 1    
   122   61  129 1    
   123   62   63 2    
   124   62   64 am   BACKBONE|DICT|INTERRES
   125   64   65 1    
   126   64  130 1    
   127   65   66 1    
   128   65   69 1    
   129   65  131 1    
   130   66   67 am   BACKBONE|DICT|INTERRES
   131   66   68 2    
   132   67  132 1    
   133   67  133 1    
   134   69   70 1    
   135   69  134 1    
   136   69  135 1    
   137   70   71 1    
   138   71  136 1    
   139   71  137 1    
@<TRIPOS>SUBSTRUCTURE
     1 UNK         1 GROUP             0       ****    0 ROOT    
