@<TRIPOS>MOLECULE
3R137
137   139    1
SMALL
USER_CHARGES


@<TRIPOS>ATOM
      1 CA         29.5720    0.6212    1.8066 C.3       0 UNK        -0.2020 
      2 C          28.9407   -0.0314    0.5860 C.2       0 UNK         0.4855 
      3 O          28.7221    0.6397   -0.4230 O.2       0 UNK        -0.5197 
      4 N          28.6568   -1.3372    0.6646 N.am      1 UNK        -0.4892 
      5 CA         28.0043   -2.1115   -0.3962 C.3       1 UNK         0.0835 
      6 C6         28.2071   -3.6350   -0.2079 C.3       12 UNK        -0.0855 
      7 S7         29.9459   -4.2114   -0.1260 S.3       12 UNK        -0.2931 
      8 C8         30.8955   -3.1594   -1.2914 C.3       12 UNK         0.0378 
      9 C9         30.8551   -3.5727   -2.7667 C.ar      12 UNK        -0.0802 
     10 C10        31.8698   -3.1015   -3.6081 C.ar      12 UNK        -0.0944 
     11 C11        31.9312   -3.4917   -4.9483 C.ar      12 UNK        -0.0787 
     12 C12        30.9492   -4.3429   -5.4608 C.ar      12 UNK        -0.0862 
     13 C13        29.9168   -4.8137   -4.6438 C.ar      12 UNK        -0.0733 
     14 C14        29.8744   -4.4217   -3.3012 C.ar      12 UNK        -0.0832 
     15 C15        28.9061   -5.8238   -5.1799 C.3       12 UNK         0.0240 
     16 S16        28.1101   -5.3119   -6.7380 S.3       12 UNK        -0.2522 
     17 C17        26.8272   -4.1619   -6.1455 C.3       12 UNK        -0.0967 
     18 CA         26.5828   -2.9998   -7.1433 C.3       5 UNK         0.0660 
     19 N          25.2864   -2.3693   -6.9228 N.am      5 UNK        -0.4015 
     20 C          24.3009   -2.2899   -7.8267 C.2       4 UNK         0.4946 
     21 O          24.3417   -2.8229   -8.9365 O.2       4 UNK        -0.5353 
     22 CA         23.0428   -1.4828   -7.4446 C.3       4 UNK         0.0277 
     23 CB         21.8628   -2.4292   -7.1668 C.3       4 UNK        -0.1981 
     24 N          23.2148   -0.5899   -6.2946 N.am      4 UNK        -0.4209 
     25 C          24.0630    0.4457   -6.2385 C.2       3 UNK         0.4942 
     26 O          24.7998    0.7818   -7.1653 O.2       3 UNK        -0.5208 
     27 CA         24.1653    1.1780   -4.8897 C.3       3 UNK         0.0250 
     28 CB         23.1275    2.3084   -4.8111 C.3       3 UNK        -0.1990 
     29 N          24.0429    0.3088   -3.7105 N.am      3 UNK        -0.4232 
     30 C          24.8167   -0.7556   -3.4562 C.2       2 UNK         0.4993 
     31 O          25.6510   -1.2086   -4.2472 O.2       2 UNK        -0.5286 
     32 CA         24.6351   -1.4510   -2.1065 C.3       2 UNK         0.0209 
     33 CB         23.6893   -2.6559   -2.2372 C.3       2 UNK        -0.1931 
     34 N          25.9604   -1.9084   -1.7066 N.am      2 UNK        -0.4546 
     35 C          26.5052   -1.7641   -0.4965 C.2       1 UNK         0.5154 
     36 O          25.8805   -1.3893    0.5000 O.2       1 UNK        -0.5181 
     37 C          27.6786   -1.9231   -7.0815 C.2       5 UNK         0.5014 
     38 O          28.3213   -1.6520   -8.0954 O.2       5 UNK        -0.5248 
     39 N          27.8679   -1.3267   -5.8972 N.am      6 UNK        -0.4434 
     40 CA         29.0044   -0.4714   -5.5667 C.3       6 UNK         0.0363 
     41 CB         29.0628   -0.2487   -4.0478 C.3       6 UNK        -0.1936 
     42 C          29.0113    0.8607   -6.3238 C.2       6 UNK         0.5081 
     43 O          30.0389    1.2169   -6.8967 O.2       6 UNK        -0.5248 
     44 N          27.8760    1.5727   -6.3352 N.am      7 UNK        -0.4718 
     45 CA         27.7502    2.8469   -7.0523 C.3       7 UNK         0.0273 
     46 CB         26.5444    3.6495   -6.5378 C.3       7 UNK        -0.1935 
     47 C          27.6794    2.6388   -8.5725 C.2       7 UNK         0.5018 
     48 O          28.2743    3.4215   -9.3127 O.2       7 UNK        -0.5186 
     49 N          26.9979    1.5667   -9.0020 N.am      8 UNK        -0.4240 
     50 CA         26.8890    1.1358  -10.3975 C.3       8 UNK         0.0235 
     51 CB         25.9276   -0.0596  -10.4913 C.3       8 UNK        -0.2000 
     52 C          28.2474    0.7993  -11.0390 C.2       8 UNK         0.4941 
     53 O          28.5144    1.2529  -12.1525 O.2       8 UNK        -0.5273 
     54 N          29.0875    0.0363  -10.3250 N.am      9 UNK        -0.4262 
     55 CA         30.4443   -0.3207  -10.7538 C.3       9 UNK         0.0264 
     56 CB         30.8406   -1.6522  -10.0968 C.3       9 UNK        -0.1955 
     57 C          31.4952    0.7680  -10.4570 C.2       9 UNK         0.5031 
     58 O          32.6238    0.6422  -10.9350 O.2       9 UNK        -0.5390 
     59 N          31.1203    1.7996   -9.6847 N.am      10 UNK        -0.4204 
     60 CA         31.9500    2.9110   -9.2012 C.3       10 UNK         0.0237 
     61 CB         32.4203    3.8044  -10.3692 C.3       10 UNK        -0.1985 
     62 C          33.1003    2.4344   -8.2913 C.2       10 UNK         0.4970 
     63 O          34.2488    2.8468   -8.4676 O.2       10 UNK        -0.4914 
     64 N          32.7597    1.5612   -7.3383 N.am      11 UNK        -0.4285 
     65 CA         33.6576    1.0055   -6.3188 C.3       11 UNK         0.1007 
     66 C          34.1006    2.0694   -5.2784 C.2       11 UNK         0.5703 
     67 N          35.2999    1.9339   -4.7286 N.am      11 UNK        -0.7361 
     68 O          33.3592    2.9897   -4.9367 O.2       11 UNK        -0.4986 
     69 C69        33.0132   -0.2194   -5.6181 C.3       12 UNK        -0.0947 
     70 S70        32.6795   -1.5684   -6.7998 S.3       12 UNK        -0.2240 
     71 C71        33.0891   -3.0492   -5.8313 C.3       12 UNK         0.0194 
     72 H72        29.7258   -0.0914    2.6169 H         1 UNK         0.0906 
     73 H73        30.5387    1.0503    1.5446 H         1 UNK         0.0906 
     74 H74        28.9321    1.4221    2.1762 H         1 UNK         0.0906 
     75 H75        28.8398   -1.8396    1.5216 H         1 UNK         0.3140 
     76 H76        28.4467   -1.8177   -1.3485 H         1 UNK         0.1085 
     77 H77        27.7173   -3.9618    0.7118 H         1 UNK         0.0836 
     78 H78        27.7086   -4.1844   -1.0078 H         1 UNK         0.0836 
     79 H79        30.6278   -2.1089   -1.1927 H         1 UNK         0.0731 
     80 H80        31.9343   -3.2150   -0.9618 H         1 UNK         0.0731 
     81 H81        32.6373   -2.4516   -3.2101 H         1 UNK         0.1312 
     82 H82        31.0029   -4.6605   -6.4933 H         1 UNK         0.1406 
     83 H83        29.0943   -4.8183   -2.6705 H         1 UNK         0.1631 
     84 H84        28.1337   -6.0411   -4.4404 H         1 UNK         0.0717 
     85 H85        29.4291   -6.7645   -5.3567 H         1 UNK         0.0717 
     86 H86        25.9127   -4.7462   -6.0302 H         1 UNK         0.0934 
     87 H87        27.0712   -3.7990   -5.1453 H         1 UNK         0.0934 
     88 H88        26.6132   -3.4159   -8.1529 H         1 UNK         0.0739 
     89 H89        25.1790   -1.8801   -6.0402 H         1 UNK         0.3093 
     90 H90        22.7908   -0.8619   -8.3069 H         1 UNK         0.0818 
     91 H91        20.9413   -1.8748   -6.9879 H         1 UNK         0.0819 
     92 H92        21.6806   -3.0875   -8.0175 H         1 UNK         0.0819 
     93 H93        22.0496   -3.0632   -6.2991 H         1 UNK         0.0819 
     94 H94        22.6641   -0.7961   -5.4739 H         1 UNK         0.3041 
     95 H95        25.1575    1.6293   -4.8440 H         1 UNK         0.0784 
     96 H96        23.2104    2.9763   -5.6699 H         1 UNK         0.0793 
     97 H97        22.1077    1.9218   -4.7965 H         1 UNK         0.0793 
     98 H98        23.2695    2.9168   -3.9176 H         1 UNK         0.0793 
     99 H99        23.3701    0.5960   -3.0135 H         1 UNK         0.3024 
    100 H100       24.2373   -0.7379   -1.3804 H         1 UNK         0.1171 
    101 H101       23.5899   -3.1830   -1.2881 H         1 UNK         0.0786 
    102 H102       22.6899   -2.3392   -2.5384 H         1 UNK         0.0786 
    103 H103       24.0447   -3.3714   -2.9803 H         1 UNK         0.0786 
    104 H104       26.5425   -2.1802   -2.4880 H         1 UNK         0.2977 
    105 H105       27.1927   -1.4888   -5.1539 H         1 UNK         0.3127 
    106 H106       29.9068   -1.0131   -5.8563 H         1 UNK         0.0770 
    107 H107       28.1498    0.2088   -3.6646 H         1 UNK         0.0814 
    108 H108       29.8937    0.4047   -3.7782 H         1 UNK         0.0814 
    109 H109       29.2148   -1.1913   -3.5241 H         1 UNK         0.0814 
    110 H110       27.0520    1.1955   -5.8910 H         1 UNK         0.2983 
    111 H111       28.6458    3.4382   -6.8456 H         1 UNK         0.0947 
    112 H112       26.5404    4.6509   -6.9702 H         1 UNK         0.0806 
    113 H113       26.5740    3.7667   -5.4546 H         1 UNK         0.0806 
    114 H114       25.5957    3.1872   -6.8047 H         1 UNK         0.0806 
    115 H115       26.4765    1.0316   -8.3151 H         1 UNK         0.3000 
    116 H116       26.4556    1.9654  -10.9600 H         1 UNK         0.0850 
    117 H117       25.7967   -0.3761  -11.5269 H         1 UNK         0.0810 
    118 H118       24.9410    0.1921  -10.1014 H         1 UNK         0.0810 
    119 H119       26.2965   -0.9201   -9.9319 H         1 UNK         0.0810 
    120 H120       28.7749   -0.3598   -9.4400 H         1 UNK         0.3040 
    121 H121       30.4423   -0.4733  -11.8351 H         1 UNK         0.0766 
    122 H122       30.8286   -1.5765   -9.0102 H         1 UNK         0.0812 
    123 H123       31.8447   -1.9587  -10.3929 H         1 UNK         0.0812 
    124 H124       30.1580   -2.4533  -10.3805 H         1 UNK         0.0812 
    125 H125       30.1763    1.7818   -9.3219 H         1 UNK         0.3205 
    126 H126       31.2983    3.5169   -8.5697 H         1 UNK         0.0754 
    127 H127       32.9310    4.6937   -9.9981 H         1 UNK         0.0769 
    128 H128       31.5770    4.1429  -10.9714 H         1 UNK         0.0769 
    129 H129       33.1152    3.2823  -11.0276 H         1 UNK         0.0769 
    130 H130       31.7742    1.3233   -7.2323 H         1 UNK         0.2981 
    131 H131       34.5558    0.6637   -6.8373 H         1 UNK         0.0541 
    132 H132       35.9130    1.1783   -4.9924 H         1 UNK         0.3459 
    133 H133       35.6014    2.6061   -4.0406 H         1 UNK         0.3459 
    134 H134       32.0777    0.0586   -5.1306 H         1 UNK         0.0612 
    135 H135       33.6701   -0.5932   -4.8312 H         1 UNK         0.0612 
    136 H136       33.3421   -3.8523   -6.5250 H         1 UNK         0.0624 
    137 H137       33.9874   -2.8753   -5.2372 H         1 UNK         0.0624 
@<TRIPOS>BOND
     1    1    2 1    
     2    1   72 1    
     3    1   73 1    
     4    1   74 1    
     5    2    3 2    
     6    2    4 am   BACKBONE|DICT|INTERRES
     7    4    5 1    
     8    4   75 1    
     9    5    6 1    
    10    5   35 1    
    11    5   76 1    
    12    6    7 1    
    13    6   77 1    
    14    6   78 1    
    15    7    8 1    
    16    8    9 1    
    17    8   79 1    
    18    8   80 1    
    19    9   10 ar   
    20    9   14 ar   
    21   10   11 ar   
    22   10   81 1    
    23   11   12 ar   
    24   11   71 1    
    25   12   13 ar   
    26   12   82 1    
    27   13   14 ar   
    28   13   15 1    
    29   14   83 1    
    30   15   16 1    
    31   15   84 1    
    32   15   85 1    
    33   16   17 1    
    34   17   18 1    
    35   17   86 1    
    36   17   87 1    
    37   18   19 1    
    38   18   37 1    
    39   18   88 1    
    40   19   20 am   BACKBONE|DICT|INTERRES
    41   19   89 1    
    42   20   21 2    
    43   20   22 1    
    44   22   23 1    
    45   22   24 1    
    46   22   90 1    
    47   23   91 1    
    48   23   92 1    
    49   23   93 1    
    50   24   25 am   BACKBONE|DICT|INTERRES
    51   24   94 1    
    52   25   26 2    
    53   25   27 1    
    54   27   28 1    
    55   27   29 1    
    56   27   95 1    
    57   28   96 1    
    58   28   97 1    
    59   28   98 1    
    60   29   30 am   BACKBONE|DICT|INTERRES
    61   29   99 1    
    62   30   31 2    
    63   30   32 1    
    64   32   33 1    
    65   32   34 1    
    66   32  100 1    
    67   33  101 1    
    68   33  102 1    
    69   33  103 1    
    70   34   35 am   BACKBONE|DICT|INTERRES
    71   34  104 1    
    72   35   36 2    
    73   37   38 2    
    74   37   39 am   BACKBONE|DICT|INTERRES
    75   39   40 1    
    76   39  105 1    
    77   40   41 1    
    78   40   42 1    
    79   40  106 1    
    80   41  107 1    
    81   41  108 1    
    82   41  109 1    
    83   42   43 2    
    84   42   44 am   BACKBONE|DICT|INTERRES
    85   44   45 1    
    86   44  110 1    
    87   45   46 1    
    88   45   47 1    
    89   45  111 1    
    90   46  112 1    
    91   46  113 1    
    92   46  114 1    
    93   47   48 2    
    94   47   49 am   BACKBONE|DICT|INTERRES
    95   49   50 1    
    96   49  115 1    
    97   50   51 1    
    98   50   52 1    
    99   50  116 1    
   100   51  117 1    
   101   51  118 1    
   102   51  119 1    
   103   52   53 2    
   104   52   54 am   BACKBONE|DICT|INTERRES
   105   54   55 1    
   106   54  120 1    
   107   55   56 1    
   108   55   57 1    
   109   55  121 1    
   110   56  122 1    
   111   56  123 1    
   112   56  124 1    
   113   57   58 2    
   114   57   59 am   BACKBONE|DICT|INTERRES
   115   59   60 1    
   116   59  125 1    
   117   60   61 1    
   118   60   62 1    
   119   60  126 1    
   120   61  127 1    
   121   61  128 1    
   122   61  129 1    
   123   62   63 2    
   124   62   64 am   BACKBONE|DICT|INTERRES
   125   64   65 1    
   126   64  130 1    
   127   65   66 1    
   128   65   69 1    
   129   65  131 1    
   130   66   67 am   BACKBONE|DICT|INTERRES
   131   66   68 2    
   132   67  132 1    
   133   67  133 1    
   134   69   70 1    
   135   69  134 1    
   136   69  135 1    
   137   70   71 1    
   138   71  136 1    
   139   71  137 1    
@<TRIPOS>SUBSTRUCTURE
     1 UNK         1 GROUP             0       ****    0 ROOT    
