@<TRIPOS>MOLECULE
3R137
137   139    1
SMALL
USER_CHARGES


@<TRIPOS>ATOM
      1 CA         25.7626   -6.3828   -5.5134 C.3       0 UNK        -0.2020 
      2 C          25.9570   -5.8264   -4.1114 C.2       0 UNK         0.4855 
      3 O          24.9786   -5.6286   -3.3908 O.2       0 UNK        -0.5197 
      4 N          27.2151   -5.5656   -3.7319 N.am      1 UNK        -0.4892 
      5 CA         27.6611   -5.0068   -2.4483 C.3       1 UNK         0.0835 
      6 C6         29.2062   -4.8891   -2.4474 C.3       12 UNK        -0.0855 
      7 S7         29.9140   -4.3946   -0.8407 S.3       12 UNK        -0.2931 
      8 C8         31.3663   -3.4279   -1.3764 C.3       12 UNK         0.0378 
      9 C9         30.9919   -2.1374   -2.0976 C.ar      12 UNK        -0.0802 
     10 C10        31.3682   -1.9321   -3.4305 C.ar      12 UNK        -0.0944 
     11 C11        31.0621   -0.7298   -4.0776 C.ar      12 UNK        -0.0787 
     12 C12        30.3698    0.2657   -3.3849 C.ar      12 UNK        -0.0862 
     13 C13        29.9552    0.0594   -2.0671 C.ar      12 UNK        -0.0733 
     14 C14        30.2835   -1.1378   -1.4242 C.ar      12 UNK        -0.0832 
     15 C15        29.1397    1.1141   -1.3354 C.3       12 UNK         0.0240 
     16 S16        27.3812    0.6448   -1.2907 S.3       12 UNK        -0.2522 
     17 C17        26.6111    1.7865   -2.4878 C.3       12 UNK        -0.0967 
     18 CA         27.0349    1.5880   -3.9655 C.3       5 UNK         0.0660 
     19 N          26.9259    0.1967   -4.4220 N.am      5 UNK        -0.4015 
     20 C          27.3466   -0.2533   -5.6149 C.2       4 UNK         0.4946 
     21 O          27.9530    0.4439   -6.4269 O.2       4 UNK        -0.5353 
     22 CA         26.9776   -1.6898   -6.0183 C.3       4 UNK         0.0277 
     23 CB         28.1887   -2.6282   -5.8929 C.3       4 UNK        -0.1981 
     24 N          25.8402   -2.2128   -5.2564 N.am      4 UNK        -0.4209 
     25 C          24.5679   -1.8281   -5.4467 C.2       3 UNK         0.4942 
     26 O          24.2333   -1.0129   -6.3062 O.2       3 UNK        -0.5208 
     27 CA         23.4920   -2.4111   -4.5127 C.3       3 UNK         0.0250 
     28 CB         22.7777   -3.5977   -5.1780 C.3       3 UNK        -0.1990 
     29 N          24.0334   -2.8232   -3.2151 N.am      3 UNK        -0.4232 
     30 C          24.3455   -1.9638   -2.2329 C.2       2 UNK         0.4993 
     31 O          24.1179   -0.7556   -2.2924 O.2       2 UNK        -0.5286 
     32 CA         25.0704   -2.5324   -0.9967 C.3       2 UNK         0.0209 
     33 CB         24.0567   -2.9195    0.0916 C.3       2 UNK        -0.1931 
     34 N          25.9346   -3.6825   -1.2897 N.am      2 UNK        -0.4546 
     35 C          26.9604   -3.6617   -2.1531 C.2       1 UNK         0.5154 
     36 O          27.2983   -2.6532   -2.7705 O.2       1 UNK        -0.5181 
     37 C          26.2655    2.5754   -4.8694 C.2       5 UNK         0.5014 
     38 O          26.7018    3.7181   -5.0132 O.2       5 UNK        -0.5248 
     39 N          25.1513    2.1257   -5.4685 N.am      6 UNK        -0.4434 
     40 CA         24.3686    2.9030   -6.4320 C.3       6 UNK         0.0363 
     41 CB         22.9592    2.3020   -6.5536 C.3       6 UNK        -0.1936 
     42 C          25.0446    2.9817   -7.8122 C.2       6 UNK         0.5081 
     43 O          24.8877    3.9902   -8.5008 O.2       6 UNK        -0.5248 
     44 N          25.7789    1.9265   -8.1934 N.am      7 UNK        -0.4718 
     45 CA         26.5550    1.8659   -9.4337 C.3       7 UNK         0.0273 
     46 CB         26.8244    0.3980   -9.8043 C.3       7 UNK        -0.1935 
     47 C          27.8728    2.6479   -9.3235 C.2       7 UNK         0.5018 
     48 O          28.2479    3.3351  -10.2742 O.2       7 UNK        -0.5186 
     49 N          28.5536    2.5122   -8.1753 N.am      8 UNK        -0.4240 
     50 CA         29.8199    3.1294   -7.7559 C.3       8 UNK         0.0235 
     51 CB         29.7123    4.6653   -7.7093 C.3       8 UNK        -0.2000 
     52 C          31.0502    2.6764   -8.5616 C.2       8 UNK         0.4941 
     53 O          32.0654    2.3241   -7.9635 O.2       8 UNK        -0.5273 
     54 N          30.9418    2.6651   -9.8952 N.am      9 UNK        -0.4262 
     55 CA         31.9854    2.2320  -10.8286 C.3       9 UNK         0.0264 
     56 CB         31.6194    2.7108  -12.2427 C.3       9 UNK        -0.1955 
     57 C          32.2291    0.7116  -10.8244 C.2       9 UNK         0.5031 
     58 O          33.2930    0.2758  -11.2658 O.2       9 UNK        -0.5390 
     59 N          31.2556   -0.0657  -10.3269 N.am      10 UNK        -0.4204 
     60 CA         31.2540   -1.5328  -10.2792 C.3       10 UNK         0.0237 
     61 CB         29.9196   -2.0068   -9.6799 C.3       10 UNK        -0.1985 
     62 C          32.4382   -2.1635   -9.5209 C.2       10 UNK         0.4970 
     63 O          32.8424   -3.2749   -9.8642 O.2       10 UNK        -0.4914 
     64 N          32.9689   -1.4472   -8.5244 N.am      11 UNK        -0.4285 
     65 CA         34.1646   -1.8105   -7.7480 C.3       11 UNK         0.1007 
     66 C          35.4533   -1.0640   -8.2053 C.2       11 UNK         0.5703 
     67 N          35.4422   -0.3099   -9.2994 N.am      11 UNK        -0.7361 
     68 O          36.4987   -1.1924   -7.5721 O.2       11 UNK        -0.4986 
     69 C69        33.9035   -1.7102   -6.2184 C.3       12 UNK        -0.0947 
     70 S70        33.2251   -0.0986   -5.6899 S.3       12 UNK        -0.2240 
     71 C71        31.4565   -0.4980   -5.5287 C.3       12 UNK         0.0194 
     72 H72        24.9870   -7.1482   -5.5116 H         1 UNK         0.0906 
     73 H73        25.4588   -5.5893   -6.1953 H         1 UNK         0.0906 
     74 H74        26.6768   -6.8331   -5.8997 H         1 UNK         0.0906 
     75 H75        27.9579   -5.7505   -4.3907 H         1 UNK         0.3140 
     76 H76        27.3778   -5.7184   -1.6700 H         1 UNK         0.1085 
     77 H77        29.5279   -4.1925   -3.2230 H         1 UNK         0.0836 
     78 H78        29.6507   -5.8506   -2.7099 H         1 UNK         0.0836 
     79 H79        31.9983   -4.0566   -2.0058 H         1 UNK         0.0731 
     80 H80        31.9638   -3.1784   -0.4985 H         1 UNK         0.0731 
     81 H81        31.9078   -2.7030   -3.9619 H         1 UNK         0.1312 
     82 H82        30.1454    1.1967   -3.8835 H         1 UNK         0.1406 
     83 H83        29.9696   -1.3010   -0.4022 H         1 UNK         0.1631 
     84 H84        29.2626    2.0957   -1.7952 H         1 UNK         0.0717 
     85 H85        29.5047    1.2093   -0.3117 H         1 UNK         0.0717 
     86 H86        25.5303    1.6652   -2.3882 H         1 UNK         0.0934 
     87 H87        26.8257    2.8077   -2.1658 H         1 UNK         0.0934 
     88 H88        28.0829    1.8688   -4.0516 H         1 UNK         0.0739 
     89 H89        26.5102   -0.4581   -3.7728 H         1 UNK         0.3093 
     90 H90        26.6886   -1.6661   -7.0713 H         1 UNK         0.0818 
     91 H91        28.9695   -2.3407   -6.5956 H         1 UNK         0.0819 
     92 H92        28.6345   -2.5935   -4.8997 H         1 UNK         0.0819 
     93 H93        27.9214   -3.6615   -6.1125 H         1 UNK         0.0819 
     94 H94        26.0690   -2.7912   -4.4573 H         1 UNK         0.3041 
     95 H95        22.7487   -1.6283   -4.3451 H         1 UNK         0.0784 
     96 H96        22.3284   -3.2991   -6.1263 H         1 UNK         0.0793 
     97 H97        23.4607   -4.4200   -5.3871 H         1 UNK         0.0793 
     98 H98        21.9758   -3.9814   -4.5470 H         1 UNK         0.0793 
     99 H99        24.2651   -3.8073   -3.1024 H         1 UNK         0.3024 
    100 H100       25.7079   -1.7370   -0.6054 H         1 UNK         0.1171 
    101 H101       24.5575   -3.2299    1.0088 H         1 UNK         0.0786 
    102 H102       23.4156   -2.0738    0.3453 H         1 UNK         0.0786 
    103 H103       23.4084   -3.7350   -0.2319 H         1 UNK         0.0786 
    104 H104       25.6764   -4.5619   -0.8651 H         1 UNK         0.2977 
    105 H105       24.8579    1.1712   -5.3088 H         1 UNK         0.3127 
    106 H106       24.2687    3.9227   -6.0533 H         1 UNK         0.0770 
    107 H107       22.9836    1.2862   -6.9493 H         1 UNK         0.0814 
    108 H108       22.3407    2.8971   -7.2268 H         1 UNK         0.0814 
    109 H109       22.4531    2.2752   -5.5884 H         1 UNK         0.0814 
    110 H110       25.8681    1.1462   -7.5584 H         1 UNK         0.2983 
    111 H111       25.9671    2.3159  -10.2371 H         1 UNK         0.0947 
    112 H112       27.3731    0.3287  -10.7446 H         1 UNK         0.0806 
    113 H113       25.8936   -0.1547   -9.9327 H         1 UNK         0.0806 
    114 H114       27.4142   -0.1140   -9.0437 H         1 UNK         0.0806 
    115 H115       28.1867    1.8361   -7.5043 H         1 UNK         0.3000 
    116 H116       29.9783    2.7847   -6.7324 H         1 UNK         0.0850 
    117 H117       30.6249    5.1066   -7.3066 H         1 UNK         0.0810 
    118 H118       28.8885    4.9819   -7.0689 H         1 UNK         0.0810 
    119 H119       29.5528    5.0962   -8.6981 H         1 UNK         0.0810 
    120 H120       30.0562    2.9776  -10.2896 H         1 UNK         0.3040 
    121 H121       32.9221    2.7112  -10.5356 H         1 UNK         0.0766 
    122 H122       31.5252    3.7962  -12.2818 H         1 UNK         0.0812 
    123 H123       30.6771    2.2797  -12.5836 H         1 UNK         0.0812 
    124 H124       32.3882    2.4277  -12.9632 H         1 UNK         0.0812 
    125 H125       30.4268    0.3969   -9.9856 H         1 UNK         0.3205 
    126 H126       31.3121   -1.8893  -11.3096 H         1 UNK         0.0754 
    127 H127       29.8932   -3.0933   -9.5830 H         1 UNK         0.0769 
    128 H128       29.0785   -1.7221  -10.3121 H         1 UNK         0.0769 
    129 H129       29.7531   -1.5847   -8.6885 H         1 UNK         0.0769 
    130 H130       32.5935   -0.5301   -8.3285 H         1 UNK         0.2981 
    131 H131       34.3947   -2.8597   -7.9402 H         1 UNK         0.0541 
    132 H132       34.6117   -0.2190   -9.8747 H         1 UNK         0.3459 
    133 H133       36.2919    0.1537   -9.5781 H         1 UNK         0.3459 
    134 H134       33.2178   -2.5037   -5.9213 H         1 UNK         0.0612 
    135 H135       34.8162   -1.9009   -5.6516 H         1 UNK         0.0612 
    136 H136       31.2010   -1.3718   -6.1288 H         1 UNK         0.0624 
    137 H137       30.8797    0.3270   -5.9501 H         1 UNK         0.0624 
@<TRIPOS>BOND
     1    1    2 1    
     2    1   72 1    
     3    1   73 1    
     4    1   74 1    
     5    2    3 2    
     6    2    4 am   BACKBONE|DICT|INTERRES
     7    4    5 1    
     8    4   75 1    
     9    5    6 1    
    10    5   35 1    
    11    5   76 1    
    12    6    7 1    
    13    6   77 1    
    14    6   78 1    
    15    7    8 1    
    16    8    9 1    
    17    8   79 1    
    18    8   80 1    
    19    9   10 ar   
    20    9   14 ar   
    21   10   11 ar   
    22   10   81 1    
    23   11   12 ar   
    24   11   71 1    
    25   12   13 ar   
    26   12   82 1    
    27   13   14 ar   
    28   13   15 1    
    29   14   83 1    
    30   15   16 1    
    31   15   84 1    
    32   15   85 1    
    33   16   17 1    
    34   17   18 1    
    35   17   86 1    
    36   17   87 1    
    37   18   19 1    
    38   18   37 1    
    39   18   88 1    
    40   19   20 am   BACKBONE|DICT|INTERRES
    41   19   89 1    
    42   20   21 2    
    43   20   22 1    
    44   22   23 1    
    45   22   24 1    
    46   22   90 1    
    47   23   91 1    
    48   23   92 1    
    49   23   93 1    
    50   24   25 am   BACKBONE|DICT|INTERRES
    51   24   94 1    
    52   25   26 2    
    53   25   27 1    
    54   27   28 1    
    55   27   29 1    
    56   27   95 1    
    57   28   96 1    
    58   28   97 1    
    59   28   98 1    
    60   29   30 am   BACKBONE|DICT|INTERRES
    61   29   99 1    
    62   30   31 2    
    63   30   32 1    
    64   32   33 1    
    65   32   34 1    
    66   32  100 1    
    67   33  101 1    
    68   33  102 1    
    69   33  103 1    
    70   34   35 am   BACKBONE|DICT|INTERRES
    71   34  104 1    
    72   35   36 2    
    73   37   38 2    
    74   37   39 am   BACKBONE|DICT|INTERRES
    75   39   40 1    
    76   39  105 1    
    77   40   41 1    
    78   40   42 1    
    79   40  106 1    
    80   41  107 1    
    81   41  108 1    
    82   41  109 1    
    83   42   43 2    
    84   42   44 am   BACKBONE|DICT|INTERRES
    85   44   45 1    
    86   44  110 1    
    87   45   46 1    
    88   45   47 1    
    89   45  111 1    
    90   46  112 1    
    91   46  113 1    
    92   46  114 1    
    93   47   48 2    
    94   47   49 am   BACKBONE|DICT|INTERRES
    95   49   50 1    
    96   49  115 1    
    97   50   51 1    
    98   50   52 1    
    99   50  116 1    
   100   51  117 1    
   101   51  118 1    
   102   51  119 1    
   103   52   53 2    
   104   52   54 am   BACKBONE|DICT|INTERRES
   105   54   55 1    
   106   54  120 1    
   107   55   56 1    
   108   55   57 1    
   109   55  121 1    
   110   56  122 1    
   111   56  123 1    
   112   56  124 1    
   113   57   58 2    
   114   57   59 am   BACKBONE|DICT|INTERRES
   115   59   60 1    
   116   59  125 1    
   117   60   61 1    
   118   60   62 1    
   119   60  126 1    
   120   61  127 1    
   121   61  128 1    
   122   61  129 1    
   123   62   63 2    
   124   62   64 am   BACKBONE|DICT|INTERRES
   125   64   65 1    
   126   64  130 1    
   127   65   66 1    
   128   65   69 1    
   129   65  131 1    
   130   66   67 am   BACKBONE|DICT|INTERRES
   131   66   68 2    
   132   67  132 1    
   133   67  133 1    
   134   69   70 1    
   135   69  134 1    
   136   69  135 1    
   137   70   71 1    
   138   71  136 1    
   139   71  137 1    
@<TRIPOS>SUBSTRUCTURE
     1 UNK         1 GROUP             0       ****    0 ROOT    
