@<TRIPOS>MOLECULE
3R137
137   139    1
SMALL
USER_CHARGES


@<TRIPOS>ATOM
      1 CA         32.3081   -5.9668   -4.9569 C.3       0 UNK        -0.2020 
      2 C          31.0064   -6.0894   -4.1786 C.2       0 UNK         0.4855 
      3 O          30.6710   -7.1820   -3.7189 O.2       0 UNK        -0.5197 
      4 N          30.2777   -4.9787   -4.0189 N.am      1 UNK        -0.4892 
      5 CA         28.9682   -4.9356   -3.3577 C.3       1 UNK         0.0835 
      6 C6         28.6482   -3.5162   -2.8169 C.3       12 UNK        -0.0855 
      7 S7         29.3983   -3.2766   -1.1720 S.3       12 UNK        -0.2931 
      8 C8         30.8518   -2.2410   -1.5537 C.3       12 UNK         0.0378 
      9 C9         30.6078   -0.7308   -1.6154 C.ar      12 UNK        -0.0802 
     10 C10        31.6724    0.0824   -2.0141 C.ar      12 UNK        -0.0944 
     11 C11        31.5334    1.4720   -2.1036 C.ar      12 UNK        -0.0787 
     12 C12        30.3164    2.0526   -1.7374 C.ar      12 UNK        -0.0862 
     13 C13        29.2484    1.2630   -1.3012 C.ar      12 UNK        -0.0733 
     14 C14        29.3944   -0.1270   -1.2547 C.ar      12 UNK        -0.0832 
     15 C15        27.9527    1.9183   -0.8372 C.3       12 UNK         0.0240 
     16 S16        26.5664    1.6469   -1.9867 S.3       12 UNK        -0.2522 
     17 C17        27.2017    2.3804   -3.5326 C.3       12 UNK        -0.0967 
     18 CA         27.4965    1.2774   -4.5909 C.3       5 UNK         0.0660 
     19 N          26.2870    0.5229   -4.9514 N.am      5 UNK        -0.4015 
     20 C          25.2047    0.9969   -5.5808 C.2       4 UNK         0.4946 
     21 O          25.1464    2.1156   -6.0974 O.2       4 UNK        -0.5353 
     22 CA         23.9612    0.0806   -5.5879 C.3       4 UNK         0.0277 
     23 CB         22.7152    0.7863   -6.1575 C.3       4 UNK        -0.1981 
     24 N          24.1412   -1.1952   -6.2902 N.am      4 UNK        -0.4209 
     25 C          24.8637   -2.2373   -5.8586 C.2       3 UNK         0.4942 
     26 O          25.5742   -2.2035   -4.8492 O.2       3 UNK        -0.5208 
     27 CA         24.7540   -3.5282   -6.6936 C.3       3 UNK         0.0250 
     28 CB         25.4544   -3.4102   -8.0584 C.3       3 UNK        -0.1990 
     29 N          25.3164   -4.6717   -5.9777 N.am      3 UNK        -0.4232 
     30 C          24.6847   -5.3803   -5.0370 C.2       2 UNK         0.4993 
     31 O          23.4991   -5.2240   -4.7409 O.2       2 UNK        -0.5286 
     32 CA         25.5141   -6.4381   -4.2873 C.3       2 UNK         0.0209 
     33 CB         25.7792   -7.6768   -5.1671 C.3       2 UNK        -0.1931 
     34 N          26.7529   -5.9156   -3.6867 N.am      2 UNK        -0.4546 
     35 C          27.8577   -5.4553   -4.2942 C.2       1 UNK         0.5154 
     36 O          28.0017   -5.4114   -5.5193 O.2       1 UNK        -0.5181 
     37 C          28.2663    1.7877   -5.8321 C.2       5 UNK         0.5014 
     38 O          28.1195    1.2304   -6.9239 O.2       5 UNK        -0.5248 
     39 N          29.1065    2.8188   -5.6572 N.am      6 UNK        -0.4434 
     40 CA         29.9328    3.4255   -6.7076 C.3       6 UNK         0.0363 
     41 CB         30.8172    4.5218   -6.0931 C.3       6 UNK        -0.1936 
     42 C          29.1273    3.9844   -7.8945 C.2       6 UNK         0.5081 
     43 O          29.6248    3.9597   -9.0193 O.2       6 UNK        -0.5248 
     44 N          27.8828    4.4150   -7.6416 N.am      7 UNK        -0.4718 
     45 CA         26.9229    4.8626   -8.6563 C.3       7 UNK         0.0273 
     46 CB         25.6771    5.4291   -7.9569 C.3       7 UNK        -0.1935 
     47 C          26.5224    3.7617   -9.6572 C.2       7 UNK         0.5018 
     48 O          26.2197    4.0802  -10.8075 O.2       7 UNK        -0.5186 
     49 N          26.5526    2.4977   -9.2143 N.am      8 UNK        -0.4240 
     50 CA         26.3161    1.3096  -10.0370 C.3       8 UNK         0.0235 
     51 CB         25.3638    0.3746   -9.2749 C.3       8 UNK        -0.2000 
     52 C          27.6255    0.5791  -10.3916 C.2       8 UNK         0.4941 
     53 O          27.5594   -0.5207  -10.9419 O.2       8 UNK        -0.5273 
     54 N          28.7818    1.1748  -10.0542 N.am      9 UNK        -0.4262 
     55 CA         30.1381    0.6235  -10.1708 C.3       9 UNK         0.0264 
     56 CB         30.5370    0.4404  -11.6509 C.3       9 UNK        -0.1955 
     57 C          30.3575   -0.6499   -9.3252 C.2       9 UNK         0.5031 
     58 O          31.1558   -1.5085   -9.7046 O.2       9 UNK        -0.5390 
     59 N          29.6614   -0.7450   -8.1834 N.am      10 UNK        -0.4204 
     60 CA         29.7453   -1.8612   -7.2368 C.3       10 UNK         0.0237 
     61 CB         28.4397   -1.9178   -6.4321 C.3       10 UNK        -0.1985 
     62 C          30.9369   -1.7395   -6.2730 C.2       10 UNK         0.4970 
     63 O          31.2439   -2.7074   -5.5760 O.2       10 UNK        -0.4914 
     64 N          31.5515   -0.5525   -6.2160 N.am      11 UNK        -0.4285 
     65 CA         32.7484   -0.2627   -5.4266 C.3       11 UNK         0.1007 
     66 C          34.0190   -0.8289   -6.1145 C.2       11 UNK         0.5703 
     67 N          34.8710   -1.5317   -5.3804 N.am      11 UNK        -0.7361 
     68 O          34.2492   -0.6089   -7.3021 O.2       11 UNK        -0.4986 
     69 C69        32.8544    1.2599   -5.1480 C.3       12 UNK        -0.0947 
     70 S70        33.8883    1.6266   -3.6912 S.3       12 UNK        -0.2240 
     71 C71        32.6857    2.3797   -2.5387 C.3       12 UNK         0.0194 
     72 H72        33.1139   -6.4731   -4.4260 H         1 UNK         0.0906 
     73 H73        32.2026   -6.4280   -5.9383 H         1 UNK         0.0906 
     74 H74        32.6026   -4.9273   -5.0976 H         1 UNK         0.0906 
     75 H75        30.5760   -4.1239   -4.4832 H         1 UNK         0.3140 
     76 H76        28.9972   -5.6298   -2.5139 H         1 UNK         0.1085 
     77 H77        28.9781   -2.7385   -3.5082 H         1 UNK         0.0836 
     78 H78        27.5736   -3.3635   -2.6941 H         1 UNK         0.0836 
     79 H79        31.6016   -2.4288   -0.7840 H         1 UNK         0.0731 
     80 H80        31.2903   -2.5784   -2.4945 H         1 UNK         0.0731 
     81 H81        32.6218   -0.3776   -2.2471 H         1 UNK         0.1312 
     82 H82        30.2087    3.1285   -1.7683 H         1 UNK         0.1406 
     83 H83        28.5594   -0.7235   -0.9159 H         1 UNK         0.1631 
     84 H84        28.0896    2.9915   -0.6946 H         1 UNK         0.0717 
     85 H85        27.6798    1.5174    0.1400 H         1 UNK         0.0717 
     86 H86        26.4650    3.0929   -3.9082 H         1 UNK         0.0934 
     87 H87        28.0848    2.9693   -3.2882 H         1 UNK         0.0934 
     88 H88        28.1697    0.5562   -4.1254 H         1 UNK         0.0739 
     89 H89        26.2448   -0.4432   -4.6370 H         1 UNK         0.3093 
     90 H90        23.7476   -0.1482   -4.5413 H         1 UNK         0.0818 
     91 H91        21.8252    0.1646   -6.0590 H         1 UNK         0.0819 
     92 H92        22.5155    1.7168   -5.6241 H         1 UNK         0.0819 
     93 H93        22.8361    1.0370   -7.2114 H         1 UNK         0.0819 
     94 H94        23.6111   -1.3043   -7.1425 H         1 UNK         0.3041 
     95 H95        23.6921   -3.7114   -6.8722 H         1 UNK         0.0784 
     96 H96        25.1529   -2.5100   -8.5924 H         1 UNK         0.0793 
     97 H97        26.5392   -3.3944   -7.9655 H         1 UNK         0.0793 
     98 H98        25.1999   -4.2569   -8.6962 H         1 UNK         0.0793 
     99 H99        26.3135   -4.8415   -6.0856 H         1 UNK         0.3024 
    100 H100       24.8988   -6.7685   -3.4482 H         1 UNK         0.1171 
    101 H101       26.3772   -7.4388   -6.0472 H         1 UNK         0.0786 
    102 H102       24.8419   -8.1071   -5.5223 H         1 UNK         0.0786 
    103 H103       26.3010   -8.4541   -4.6089 H         1 UNK         0.0786 
    104 H104       26.7332   -5.8717   -2.6765 H         1 UNK         0.2977 
    105 H105       29.1924    3.2227   -4.7366 H         1 UNK         0.3127 
    106 H106       30.5851    2.6442   -7.1027 H         1 UNK         0.0770 
    107 H107       30.2216    5.3240   -5.6555 H         1 UNK         0.0814 
    108 H108       31.4614    4.9716   -6.8501 H         1 UNK         0.0814 
    109 H109       31.4684    4.1233   -5.3155 H         1 UNK         0.0814 
    110 H110       27.5489    4.3771   -6.6894 H         1 UNK         0.2983 
    111 H111       27.3935    5.6658   -9.2278 H         1 UNK         0.0947 
    112 H112       24.9519    5.7935   -8.6860 H         1 UNK         0.0806 
    113 H113       25.9310    6.2676   -7.3083 H         1 UNK         0.0806 
    114 H114       25.1767    4.6726   -7.3503 H         1 UNK         0.0806 
    115 H115       26.8181    2.3233   -8.2503 H         1 UNK         0.3000 
    116 H116       25.8380    1.5891  -10.9779 H         1 UNK         0.0850 
    117 H117       25.0724   -0.4746   -9.8936 H         1 UNK         0.0810 
    118 H118       25.8323   -0.0177   -8.3716 H         1 UNK         0.0810 
    119 H119       24.4501    0.8925   -8.9856 H         1 UNK         0.0810 
    120 H120       28.7301    2.0950   -9.6325 H         1 UNK         0.3040 
    121 H121       30.8025    1.3781   -9.7473 H         1 UNK         0.0766 
    122 H122       30.3844    1.3578  -12.2191 H         1 UNK         0.0812 
    123 H123       29.9622   -0.3522  -12.1308 H         1 UNK         0.0812 
    124 H124       31.5912    0.1762  -11.7422 H         1 UNK         0.0812 
    125 H125       29.0278    0.0108   -7.9235 H         1 UNK         0.3205 
    126 H126       29.8488   -2.7915   -7.7994 H         1 UNK         0.0754 
    127 H127       28.2591   -2.9229   -6.0579 H         1 UNK         0.0769 
    128 H128       27.5797   -1.6259   -7.0328 H         1 UNK         0.0769 
    129 H129       28.4663   -1.2598   -5.5658 H         1 UNK         0.0769 
    130 H130       31.2511    0.1682   -6.8518 H         1 UNK         0.2981 
    131 H131       32.6233   -0.7784   -4.4747 H         1 UNK         0.0541 
    132 H132       35.7061   -1.8942   -5.8128 H         1 UNK         0.3459 
    133 H133       34.7006   -1.6996   -4.4016 H         1 UNK         0.3459 
    134 H134       31.8612    1.6730   -4.9674 H         1 UNK         0.0612 
    135 H135       33.2474    1.7989   -6.0121 H         1 UNK         0.0612 
    136 H136       32.2933    3.2851   -3.0042 H         1 UNK         0.0624 
    137 H137       33.2234    2.7009   -1.6460 H         1 UNK         0.0624 
@<TRIPOS>BOND
     1    1    2 1    
     2    1   72 1    
     3    1   73 1    
     4    1   74 1    
     5    2    3 2    
     6    2    4 am   BACKBONE|DICT|INTERRES
     7    4    5 1    
     8    4   75 1    
     9    5    6 1    
    10    5   35 1    
    11    5   76 1    
    12    6    7 1    
    13    6   77 1    
    14    6   78 1    
    15    7    8 1    
    16    8    9 1    
    17    8   79 1    
    18    8   80 1    
    19    9   10 ar   
    20    9   14 ar   
    21   10   11 ar   
    22   10   81 1    
    23   11   12 ar   
    24   11   71 1    
    25   12   13 ar   
    26   12   82 1    
    27   13   14 ar   
    28   13   15 1    
    29   14   83 1    
    30   15   16 1    
    31   15   84 1    
    32   15   85 1    
    33   16   17 1    
    34   17   18 1    
    35   17   86 1    
    36   17   87 1    
    37   18   19 1    
    38   18   37 1    
    39   18   88 1    
    40   19   20 am   BACKBONE|DICT|INTERRES
    41   19   89 1    
    42   20   21 2    
    43   20   22 1    
    44   22   23 1    
    45   22   24 1    
    46   22   90 1    
    47   23   91 1    
    48   23   92 1    
    49   23   93 1    
    50   24   25 am   BACKBONE|DICT|INTERRES
    51   24   94 1    
    52   25   26 2    
    53   25   27 1    
    54   27   28 1    
    55   27   29 1    
    56   27   95 1    
    57   28   96 1    
    58   28   97 1    
    59   28   98 1    
    60   29   30 am   BACKBONE|DICT|INTERRES
    61   29   99 1    
    62   30   31 2    
    63   30   32 1    
    64   32   33 1    
    65   32   34 1    
    66   32  100 1    
    67   33  101 1    
    68   33  102 1    
    69   33  103 1    
    70   34   35 am   BACKBONE|DICT|INTERRES
    71   34  104 1    
    72   35   36 2    
    73   37   38 2    
    74   37   39 am   BACKBONE|DICT|INTERRES
    75   39   40 1    
    76   39  105 1    
    77   40   41 1    
    78   40   42 1    
    79   40  106 1    
    80   41  107 1    
    81   41  108 1    
    82   41  109 1    
    83   42   43 2    
    84   42   44 am   BACKBONE|DICT|INTERRES
    85   44   45 1    
    86   44  110 1    
    87   45   46 1    
    88   45   47 1    
    89   45  111 1    
    90   46  112 1    
    91   46  113 1    
    92   46  114 1    
    93   47   48 2    
    94   47   49 am   BACKBONE|DICT|INTERRES
    95   49   50 1    
    96   49  115 1    
    97   50   51 1    
    98   50   52 1    
    99   50  116 1    
   100   51  117 1    
   101   51  118 1    
   102   51  119 1    
   103   52   53 2    
   104   52   54 am   BACKBONE|DICT|INTERRES
   105   54   55 1    
   106   54  120 1    
   107   55   56 1    
   108   55   57 1    
   109   55  121 1    
   110   56  122 1    
   111   56  123 1    
   112   56  124 1    
   113   57   58 2    
   114   57   59 am   BACKBONE|DICT|INTERRES
   115   59   60 1    
   116   59  125 1    
   117   60   61 1    
   118   60   62 1    
   119   60  126 1    
   120   61  127 1    
   121   61  128 1    
   122   61  129 1    
   123   62   63 2    
   124   62   64 am   BACKBONE|DICT|INTERRES
   125   64   65 1    
   126   64  130 1    
   127   65   66 1    
   128   65   69 1    
   129   65  131 1    
   130   66   67 am   BACKBONE|DICT|INTERRES
   131   66   68 2    
   132   67  132 1    
   133   67  133 1    
   134   69   70 1    
   135   69  134 1    
   136   69  135 1    
   137   70   71 1    
   138   71  136 1    
   139   71  137 1    
@<TRIPOS>SUBSTRUCTURE
     1 UNK         1 GROUP             0       ****    0 ROOT    
