@<TRIPOS>MOLECULE
3R137
137   139    1
SMALL
USER_CHARGES


@<TRIPOS>ATOM
      1 CA         28.9707    1.2064   -0.8882 C.3       0 UNK        -0.2020 
      2 C          28.7326   -0.2357   -1.3084 C.2       0 UNK         0.4855 
      3 O          28.6002   -0.5109   -2.5009 O.2       0 UNK        -0.5197 
      4 N          28.6698   -1.1612   -0.3411 N.am      1 UNK        -0.4892 
      5 CA         28.4496   -2.5933   -0.5707 C.3       1 UNK         0.0835 
      6 C6         29.0348   -3.4784    0.5619 C.3       12 UNK        -0.0855 
      7 S7         30.8516   -3.3753    0.6913 S.3       12 UNK        -0.2931 
      8 C8         31.3762   -4.8045   -0.3151 C.3       12 UNK         0.0378 
      9 C9         31.2651   -4.5008   -1.8019 C.ar      12 UNK        -0.0802 
     10 C10        32.2716   -3.7687   -2.4341 C.ar      12 UNK        -0.0944 
     11 C11        32.1613   -3.4348   -3.7846 C.ar      12 UNK        -0.0787 
     12 C12        31.0358   -3.8418   -4.5075 C.ar      12 UNK        -0.0862 
     13 C13        30.0020   -4.5539   -3.8826 C.ar      12 UNK        -0.0733 
     14 C14        30.1473   -4.9106   -2.5366 C.ar      12 UNK        -0.0832 
     15 C15        28.7067   -4.9488   -4.6002 C.3       12 UNK         0.0240 
     16 S16        28.3501   -4.0920   -6.1776 S.3       12 UNK        -0.2522 
     17 C17        28.2098   -2.3459   -5.6680 C.3       12 UNK        -0.0967 
     18 CA         27.5183   -1.4945   -6.7628 C.3       5 UNK         0.0660 
     19 N          26.0690   -1.7115   -6.8192 N.am      5 UNK        -0.4015 
     20 C          25.2607   -1.2411   -7.7811 C.2       4 UNK         0.4946 
     21 O          25.6495   -0.5906   -8.7507 O.2       4 UNK        -0.5353 
     22 CA         23.7560   -1.5081   -7.6136 C.3       4 UNK         0.0277 
     23 CB         23.4094   -2.9509   -8.0154 C.3       4 UNK        -0.1981 
     24 N          23.2854   -1.2450   -6.2518 N.am      4 UNK        -0.4209 
     25 C          23.2731   -0.0337   -5.6759 C.2       3 UNK         0.4942 
     26 O          23.6125    1.0018   -6.2452 O.2       3 UNK        -0.5208 
     27 CA         22.8657    0.0258   -4.1941 C.3       3 UNK         0.0250 
     28 CB         21.3361    0.0812   -4.0535 C.3       3 UNK        -0.1990 
     29 N          23.3985   -1.0827   -3.3931 N.am      3 UNK        -0.4232 
     30 C          24.7009   -1.3706   -3.2685 C.2       2 UNK         0.4993 
     31 O          25.5996   -0.7582   -3.8500 O.2       2 UNK        -0.5286 
     32 CA         25.0598   -2.5737   -2.3962 C.3       2 UNK         0.0209 
     33 CB         24.9064   -3.8865   -3.1861 C.3       2 UNK        -0.1931 
     34 N          26.4434   -2.4227   -1.9601 N.am      2 UNK        -0.4546 
     35 C          26.9572   -2.8929   -0.8219 C.2       1 UNK         0.5154 
     36 O          26.3004   -3.5246    0.0087 O.2       1 UNK        -0.5181 
     37 C          27.8637   -0.0031   -6.6068 C.2       5 UNK         0.5014 
     38 O          28.7501    0.4820   -7.3131 O.2       5 UNK        -0.5248 
     39 N          27.1413    0.6957   -5.7209 N.am      6 UNK        -0.4434 
     40 CA         27.2594    2.1354   -5.4980 C.3       6 UNK         0.0363 
     41 CB         26.4169    2.5364   -4.2770 C.3       6 UNK        -0.1936 
     42 C          26.8701    2.9633   -6.7345 C.2       6 UNK         0.5081 
     43 O          27.6067    3.8808   -7.0954 O.2       6 UNK        -0.5248 
     44 N          25.7433    2.6171   -7.3754 N.am      7 UNK        -0.4718 
     45 CA         25.2422    3.2738   -8.5875 C.3       7 UNK         0.0273 
     46 CB         23.8163    2.7892   -8.8940 C.3       7 UNK        -0.1935 
     47 C          26.1529    3.0692   -9.8081 C.2       7 UNK         0.5018 
     48 O          26.3803    4.0211  -10.5560 O.2       7 UNK        -0.5186 
     49 N          26.6682    1.8442   -9.9819 N.am      8 UNK        -0.4240 
     50 CA         27.6109    1.4928  -11.0476 C.3       8 UNK         0.0235 
     51 CB         27.6467   -0.0369  -11.2017 C.3       8 UNK        -0.2000 
     52 C          29.0348    2.0272  -10.8120 C.2       8 UNK         0.4941 
     53 O          29.8109    2.0772  -11.7671 O.2       8 UNK        -0.5273 
     54 N          29.3608    2.3710   -9.5551 N.am      9 UNK        -0.4262 
     55 CA         30.6980    2.6808   -9.0334 C.3       9 UNK         0.0264 
     56 CB         31.2501    3.9888   -9.6379 C.3       9 UNK        -0.1955 
     57 C          31.6501    1.4798   -9.1974 C.2       9 UNK         0.5031 
     58 O          32.7939    1.6406   -9.6302 O.2       9 UNK        -0.5390 
     59 N          31.1396    0.2861   -8.8586 N.am      10 UNK        -0.4204 
     60 CA         31.7738   -1.0176   -9.0870 C.3       10 UNK         0.0237 
     61 CB         30.7936   -2.1309   -8.6843 C.3       10 UNK        -0.1985 
     62 C          33.1208   -1.2079   -8.3709 C.2       10 UNK         0.4970 
     63 O          33.9412   -2.0020   -8.8325 O.2       10 UNK        -0.4914 
     64 N          33.3224   -0.4794   -7.2682 N.am      11 UNK        -0.4285 
     65 CA         34.5682   -0.4557   -6.4922 C.3       11 UNK         0.1007 
     66 C          35.7074    0.3843   -7.1419 C.2       11 UNK         0.5703 
     67 N          35.4626    1.1401   -8.2078 N.am      11 UNK        -0.7361 
     68 O          36.8418    0.3419   -6.6715 O.2       11 UNK        -0.4986 
     69 C69        34.3208   -0.0252   -5.0200 C.3       12 UNK        -0.0947 
     70 S70        32.8929   -0.8247   -4.2062 S.3       12 UNK        -0.2240 
     71 C71        33.2390   -2.5946   -4.4474 C.3       12 UNK         0.0194 
     72 H72        28.1182    1.8237   -1.1696 H         1 UNK         0.0906 
     73 H73        29.8556    1.5992   -1.3882 H         1 UNK         0.0906 
     74 H74        29.1192    1.2995    0.1873 H         1 UNK         0.0906 
     75 H75        28.7747   -0.8845    0.6247 H         1 UNK         0.3140 
     76 H76        28.9665   -2.8525   -1.4935 H         1 UNK         0.1085 
     77 H77        28.7599   -4.5250    0.4166 H         1 UNK         0.0836 
     78 H78        28.6079   -3.1925    1.5250 H         1 UNK         0.0836 
     79 H79        32.4124   -5.0437   -0.0707 H         1 UNK         0.0731 
     80 H80        30.7930   -5.6879   -0.0507 H         1 UNK         0.0731 
     81 H81        33.1295   -3.4339   -1.8666 H         1 UNK         0.1312 
     82 H82        30.9630   -3.5721   -5.5509 H         1 UNK         0.1406 
     83 H83        29.3632   -5.4705   -2.0444 H         1 UNK         0.1631 
     84 H84        27.8609   -4.7857   -3.9307 H         1 UNK         0.0717 
     85 H85        28.7391   -6.0209   -4.7981 H         1 UNK         0.0717 
     86 H86        27.6755   -2.2774   -4.7194 H         1 UNK         0.0934 
     87 H87        29.2162   -1.9740   -5.4673 H         1 UNK         0.0934 
     88 H88        27.9189   -1.7954   -7.7329 H         1 UNK         0.0739 
     89 H89        25.6594   -2.1981   -6.0373 H         1 UNK         0.3093 
     90 H90        23.2251   -0.8310   -8.2865 H         1 UNK         0.0818 
     91 H91        23.7419   -3.1611   -9.0331 H         1 UNK         0.0819 
     92 H92        23.8838   -3.6829   -7.3605 H         1 UNK         0.0819 
     93 H93        22.3332   -3.1225   -7.9872 H         1 UNK         0.0819 
     94 H94        22.9810   -2.0382   -5.7069 H         1 UNK         0.3041 
     95 H95        23.2778    0.9497   -3.7827 H         1 UNK         0.0784 
     96 H96        20.9219    0.9097   -4.6303 H         1 UNK         0.0793 
     97 H97        20.8616   -0.8337   -4.4107 H         1 UNK         0.0793 
     98 H98        21.0378    0.2320   -3.0158 H         1 UNK         0.0793 
     99 H99        22.7230   -1.6438   -2.8935 H         1 UNK         0.3024 
    100 H100       24.3997   -2.5817   -1.5255 H         1 UNK         0.1171 
    101 H101       23.8749   -4.0352   -3.5075 H         1 UNK         0.0786 
    102 H102       25.5323   -3.8965   -4.0792 H         1 UNK         0.0786 
    103 H103       25.1802   -4.7491   -2.5782 H         1 UNK         0.0786 
    104 H104       27.0100   -1.7958   -2.5289 H         1 UNK         0.2977 
    105 H105       26.4774    0.1952   -5.1306 H         1 UNK         0.3127 
    106 H106       28.3066    2.3468   -5.2717 H         1 UNK         0.0770 
    107 H107       25.3569    2.3349   -4.4345 H         1 UNK         0.0814 
    108 H108       26.5209    3.6007   -4.0626 H         1 UNK         0.0814 
    109 H109       26.7300    1.9909   -3.3864 H         1 UNK         0.0814 
    110 H110       25.1612    1.8782   -6.9874 H         1 UNK         0.2983 
    111 H111       25.1994    4.3469   -8.3886 H         1 UNK         0.0947 
    112 H112       23.7826    1.7102   -9.0509 H         1 UNK         0.0806 
    113 H113       23.4251    3.2643   -9.7946 H         1 UNK         0.0806 
    114 H114       23.1334    3.0294   -8.0790 H         1 UNK         0.0806 
    115 H115       26.3802    1.0919   -9.3593 H         1 UNK         0.3000 
    116 H116       27.2494    1.9232  -11.9840 H         1 UNK         0.0850 
    117 H117       28.3148   -0.3355  -12.0106 H         1 UNK         0.0810 
    118 H118       26.6588   -0.4356  -11.4331 H         1 UNK         0.0810 
    119 H119       27.9983   -0.5233  -10.2907 H         1 UNK         0.0810 
    120 H120       28.6444    2.2614   -8.8479 H         1 UNK         0.3040 
    121 H121       30.5780    2.8359   -7.9600 H         1 UNK         0.0766 
    122 H122       31.4522    3.8918  -10.7049 H         1 UNK         0.0812 
    123 H123       32.1863    4.2739   -9.1565 H         1 UNK         0.0812 
    124 H124       30.5504    4.8134   -9.5016 H         1 UNK         0.0812 
    125 H125       30.2121    0.2785   -8.4358 H         1 UNK         0.3205 
    126 H126       31.9656   -1.1001  -10.1587 H         1 UNK         0.0754 
    127 H127       31.2236   -3.1175   -8.8631 H         1 UNK         0.0769 
    128 H128       29.8696   -2.0740   -9.2597 H         1 UNK         0.0769 
    129 H129       30.5376   -2.0746   -7.6262 H         1 UNK         0.0769 
    130 H130       32.5924    0.1432   -6.9579 H         1 UNK         0.2981 
    131 H131       34.9533   -1.4763   -6.4669 H         1 UNK         0.0541 
    132 H132       36.2156    1.6718   -8.6142 H         1 UNK         0.3459 
    133 H133       34.5359    1.1897   -8.6166 H         1 UNK         0.3459 
    134 H134       34.1542    1.0523   -4.9676 H         1 UNK         0.0612 
    135 H135       35.2075   -0.2236   -4.4153 H         1 UNK         0.0612 
    136 H136       33.2813   -2.8257   -5.5123 H         1 UNK         0.0624 
    137 H137       34.2187   -2.8360   -4.0322 H         1 UNK         0.0624 
@<TRIPOS>BOND
     1    1    2 1    
     2    1   72 1    
     3    1   73 1    
     4    1   74 1    
     5    2    3 2    
     6    2    4 am   BACKBONE|DICT|INTERRES
     7    4    5 1    
     8    4   75 1    
     9    5    6 1    
    10    5   35 1    
    11    5   76 1    
    12    6    7 1    
    13    6   77 1    
    14    6   78 1    
    15    7    8 1    
    16    8    9 1    
    17    8   79 1    
    18    8   80 1    
    19    9   10 ar   
    20    9   14 ar   
    21   10   11 ar   
    22   10   81 1    
    23   11   12 ar   
    24   11   71 1    
    25   12   13 ar   
    26   12   82 1    
    27   13   14 ar   
    28   13   15 1    
    29   14   83 1    
    30   15   16 1    
    31   15   84 1    
    32   15   85 1    
    33   16   17 1    
    34   17   18 1    
    35   17   86 1    
    36   17   87 1    
    37   18   19 1    
    38   18   37 1    
    39   18   88 1    
    40   19   20 am   BACKBONE|DICT|INTERRES
    41   19   89 1    
    42   20   21 2    
    43   20   22 1    
    44   22   23 1    
    45   22   24 1    
    46   22   90 1    
    47   23   91 1    
    48   23   92 1    
    49   23   93 1    
    50   24   25 am   BACKBONE|DICT|INTERRES
    51   24   94 1    
    52   25   26 2    
    53   25   27 1    
    54   27   28 1    
    55   27   29 1    
    56   27   95 1    
    57   28   96 1    
    58   28   97 1    
    59   28   98 1    
    60   29   30 am   BACKBONE|DICT|INTERRES
    61   29   99 1    
    62   30   31 2    
    63   30   32 1    
    64   32   33 1    
    65   32   34 1    
    66   32  100 1    
    67   33  101 1    
    68   33  102 1    
    69   33  103 1    
    70   34   35 am   BACKBONE|DICT|INTERRES
    71   34  104 1    
    72   35   36 2    
    73   37   38 2    
    74   37   39 am   BACKBONE|DICT|INTERRES
    75   39   40 1    
    76   39  105 1    
    77   40   41 1    
    78   40   42 1    
    79   40  106 1    
    80   41  107 1    
    81   41  108 1    
    82   41  109 1    
    83   42   43 2    
    84   42   44 am   BACKBONE|DICT|INTERRES
    85   44   45 1    
    86   44  110 1    
    87   45   46 1    
    88   45   47 1    
    89   45  111 1    
    90   46  112 1    
    91   46  113 1    
    92   46  114 1    
    93   47   48 2    
    94   47   49 am   BACKBONE|DICT|INTERRES
    95   49   50 1    
    96   49  115 1    
    97   50   51 1    
    98   50   52 1    
    99   50  116 1    
   100   51  117 1    
   101   51  118 1    
   102   51  119 1    
   103   52   53 2    
   104   52   54 am   BACKBONE|DICT|INTERRES
   105   54   55 1    
   106   54  120 1    
   107   55   56 1    
   108   55   57 1    
   109   55  121 1    
   110   56  122 1    
   111   56  123 1    
   112   56  124 1    
   113   57   58 2    
   114   57   59 am   BACKBONE|DICT|INTERRES
   115   59   60 1    
   116   59  125 1    
   117   60   61 1    
   118   60   62 1    
   119   60  126 1    
   120   61  127 1    
   121   61  128 1    
   122   61  129 1    
   123   62   63 2    
   124   62   64 am   BACKBONE|DICT|INTERRES
   125   64   65 1    
   126   64  130 1    
   127   65   66 1    
   128   65   69 1    
   129   65  131 1    
   130   66   67 am   BACKBONE|DICT|INTERRES
   131   66   68 2    
   132   67  132 1    
   133   67  133 1    
   134   69   70 1    
   135   69  134 1    
   136   69  135 1    
   137   70   71 1    
   138   71  136 1    
   139   71  137 1    
@<TRIPOS>SUBSTRUCTURE
     1 UNK         1 GROUP             0       ****    0 ROOT    
