@<TRIPOS>MOLECULE
3R137
137   139    1
SMALL
USER_CHARGES


@<TRIPOS>ATOM
      1 CA         26.3874   -1.4784   -1.4135 C.3       0 UNK        -0.2020 
      2 C          26.5974   -2.8617   -0.8052 C.2       0 UNK         0.4855 
      3 O          26.7012   -2.9752    0.4145 O.2       0 UNK        -0.5197 
      4 N          26.6793   -3.9358   -1.6011 N.am      1 UNK        -0.4892 
      5 CA         26.5105   -3.9731   -3.0599 C.3       1 UNK         0.0835 
      6 C6         27.2404   -5.1867   -3.6906 C.3       12 UNK        -0.0855 
      7 S7         29.0323   -5.1532   -3.3554 S.3       12 UNK        -0.2931 
      8 C8         29.6093   -4.0590   -4.6885 C.3       12 UNK         0.0378 
      9 C9         30.8050   -3.2417   -4.2320 C.ar      12 UNK        -0.0802 
     10 C10        32.1031   -3.6416   -4.5581 C.ar      12 UNK        -0.0944 
     11 C11        33.2018   -2.8961   -4.1228 C.ar      12 UNK        -0.0787 
     12 C12        32.9905   -1.7399   -3.3638 C.ar      12 UNK        -0.0862 
     13 C13        31.6974   -1.3263   -3.0251 C.ar      12 UNK        -0.0733 
     14 C14        30.6080   -2.0899   -3.4641 C.ar      12 UNK        -0.0832 
     15 C15        31.5375   -0.0890   -2.1372 C.3       12 UNK         0.0240 
     16 S16        29.8755    0.6728   -2.1085 S.3       12 UNK        -0.2522 
     17 C17        29.7903    1.4518   -3.7557 C.3       12 UNK        -0.0967 
     18 CA         28.5232    1.0340   -4.5396 C.3       5 UNK         0.0660 
     19 N          27.2826    1.3512   -3.8175 N.am      5 UNK        -0.4015 
     20 C          26.0713    0.8882   -4.1523 C.2       4 UNK         0.4946 
     21 O          25.8681    0.1208   -5.0958 O.2       4 UNK        -0.5353 
     22 CA         24.8910    1.4050   -3.3251 C.3       4 UNK         0.0277 
     23 CB         24.4262    2.7799   -3.8375 C.3       4 UNK        -0.1981 
     24 N          23.7914    0.4506   -3.4212 N.am      4 UNK        -0.4209 
     25 C          22.8868    0.2034   -2.4688 C.2       3 UNK         0.4942 
     26 O          22.8491    0.8097   -1.3975 O.2       3 UNK        -0.5208 
     27 CA         21.8650   -0.9235   -2.7160 C.3       3 UNK         0.0250 
     28 CB         20.5653   -0.3719   -3.3352 C.3       3 UNK        -0.1990 
     29 N          22.3890   -2.0739   -3.4693 N.am      3 UNK        -0.4232 
     30 C          22.7347   -2.1517   -4.7619 C.2       2 UNK         0.4993 
     31 O          22.6556   -1.2117   -5.5525 O.2       2 UNK        -0.5286 
     32 CA         23.3508   -3.4877   -5.2116 C.3       2 UNK         0.0209 
     33 CB         23.3848   -3.6458   -6.7431 C.3       2 UNK        -0.1931 
     34 N          24.7132   -3.6137   -4.6885 N.am      2 UNK        -0.4546 
     35 C          25.0154   -3.9816   -3.4370 C.2       1 UNK         0.5154 
     36 O          24.1630   -4.3087   -2.6059 O.2       1 UNK        -0.5181 
     37 C          28.5482    1.6395   -5.9582 C.2       5 UNK         0.5014 
     38 O          29.2253    1.0960   -6.8302 O.2       5 UNK        -0.5248 
     39 N          27.7941    2.7258   -6.1879 N.am      6 UNK        -0.4434 
     40 CA         27.6214    3.3728   -7.4930 C.3       6 UNK         0.0363 
     41 CB         26.7652    4.6376   -7.3262 C.3       6 UNK        -0.1936 
     42 C          27.0104    2.4478   -8.5615 C.2       6 UNK         0.5081 
     43 O          27.3694    2.5624   -9.7328 O.2       6 UNK        -0.5248 
     44 N          26.1519    1.5070   -8.1403 N.am      7 UNK        -0.4718 
     45 CA         25.5799    0.4640   -8.9987 C.3       7 UNK         0.0273 
     46 CB         24.3998   -0.1936   -8.2703 C.3       7 UNK        -0.1935 
     47 C          26.6102   -0.5958   -9.4362 C.2       7 UNK         0.5018 
     48 O          26.3931   -1.2631  -10.4475 O.2       7 UNK        -0.5186 
     49 N          27.7197   -0.7058   -8.6931 N.am      8 UNK        -0.4240 
     50 CA         28.8935   -1.5179   -9.0154 C.3       8 UNK         0.0235 
     51 CB         29.3104   -2.3003   -7.7565 C.3       8 UNK        -0.2000 
     52 C          30.0467   -0.6446   -9.5496 C.2       8 UNK         0.4941 
     53 O          31.2004   -1.0733   -9.4939 O.2       8 UNK        -0.5273 
     54 N          29.7315    0.5736  -10.0241 N.am      9 UNK        -0.4262 
     55 CA         30.6425    1.5832  -10.5792 C.3       9 UNK         0.0264 
     56 CB         31.1843    1.1191  -11.9481 C.3       9 UNK        -0.1955 
     57 C          31.7657    2.0035   -9.6098 C.2       9 UNK         0.5031 
     58 O          32.8878    2.2600  -10.0514 O.2       9 UNK        -0.5390 
     59 N          31.4614    2.0214   -8.3017 N.am      10 UNK        -0.4204 
     60 CA         32.3830    2.2693   -7.1848 C.3       10 UNK         0.0237 
     61 CB         32.8462    3.7414   -7.1716 C.3       10 UNK        -0.1985 
     62 C          33.5537    1.2650   -7.1364 C.2       10 UNK         0.4970 
     63 O          34.6520    1.6241   -6.7090 O.2       10 UNK        -0.4914 
     64 N          33.2932    0.0308   -7.5900 N.am      11 UNK        -0.4285 
     65 CA         34.2643   -1.0537   -7.7832 C.3       11 UNK         0.1007 
     66 C          35.2108   -0.8628   -9.0089 C.2       11 UNK         0.5703 
     67 N          34.9955    0.1168   -9.8811 N.am      11 UNK        -0.7361 
     68 O          36.1483   -1.6354   -9.1947 O.2       11 UNK        -0.4986 
     69 C69        35.0183   -1.4425   -6.4734 C.3       12 UNK        -0.0947 
     70 S70        35.0389   -3.2452   -6.2002 S.3       12 UNK        -0.2240 
     71 C71        34.6186   -3.3652   -4.4318 C.3       12 UNK         0.0194 
     72 H72        27.2593   -1.1795   -1.9963 H         1 UNK         0.0906 
     73 H73        25.5061   -1.4597   -2.0536 H         1 UNK         0.0906 
     74 H74        26.2401   -0.7342   -0.6298 H         1 UNK         0.0906 
     75 H75        26.8069   -4.8396   -1.1692 H         1 UNK         0.3140 
     76 H76        26.9441   -3.0657   -3.4837 H         1 UNK         0.1085 
     77 H77        27.0892   -5.2261   -4.7715 H         1 UNK         0.0836 
     78 H78        26.8385   -6.1224   -3.2968 H         1 UNK         0.0836 
     79 H79        28.8118   -3.3805   -4.9922 H         1 UNK         0.0731 
     80 H80        29.8571   -4.6564   -5.5674 H         1 UNK         0.0731 
     81 H81        32.2620   -4.5397   -5.1395 H         1 UNK         0.1312 
     82 H82        33.8405   -1.1689   -3.0153 H         1 UNK         0.1406 
     83 H83        29.6004   -1.8113   -3.1928 H         1 UNK         0.1631 
     84 H84        32.2614    0.6730   -2.4309 H         1 UNK         0.0717 
     85 H85        31.7925   -0.3742   -1.1157 H         1 UNK         0.0717 
     86 H86        29.8294    2.5351   -3.6250 H         1 UNK         0.0934 
     87 H87        30.6859    1.1813   -4.3187 H         1 UNK         0.0934 
     88 H88        28.5536   -0.0498   -4.6710 H         1 UNK         0.0739 
     89 H89        27.3777    1.9619   -3.0182 H         1 UNK         0.3093 
     90 H90        25.2116    1.4889   -2.2842 H         1 UNK         0.0818 
     91 H91        25.2223    3.5215   -3.7647 H         1 UNK         0.0819 
     92 H92        24.1116    2.7349   -4.8812 H         1 UNK         0.0819 
     93 H93        23.5853    3.1547   -3.2534 H         1 UNK         0.0819 
     94 H94        23.7552   -0.0859   -4.2852 H         1 UNK         0.3041 
     95 H95        21.6088   -1.3211   -1.7326 H         1 UNK         0.0784 
     96 H96        20.1245    0.3915   -2.6927 H         1 UNK         0.0793 
     97 H97        20.7376    0.0887   -4.3083 H         1 UNK         0.0793 
     98 H98        19.8210   -1.1579   -3.4620 H         1 UNK         0.0793 
     99 H99        22.5945   -2.8920   -2.9046 H         1 UNK         0.3024 
    100 H100       22.7274   -4.2914   -4.8113 H         1 UNK         0.1171 
    101 H101       24.0560   -2.9279   -7.2127 H         1 UNK         0.0786 
    102 H102       23.7152   -4.6446   -7.0286 H         1 UNK         0.0786 
    103 H103       22.3936   -3.4978   -7.1740 H         1 UNK         0.0786 
    104 H104       25.4538   -3.3227   -5.3108 H         1 UNK         0.2977 
    105 H105       27.2804    3.1232   -5.4160 H         1 UNK         0.3127 
    106 H106       28.6103    3.6718   -7.8470 H         1 UNK         0.0770 
    107 H107       25.7695    4.4059   -6.9459 H         1 UNK         0.0814 
    108 H108       26.6378    5.1503   -8.2808 H         1 UNK         0.0814 
    109 H109       27.2314    5.3461   -6.6414 H         1 UNK         0.0814 
    110 H110       25.9332    1.4477   -7.1543 H         1 UNK         0.2983 
    111 H111       25.1995    0.9394   -9.9056 H         1 UNK         0.0947 
    112 H112       23.9314   -0.9591   -8.8902 H         1 UNK         0.0806 
    113 H113       23.6286    0.5344   -8.0182 H         1 UNK         0.0806 
    114 H114       24.7190   -0.6717   -7.3445 H         1 UNK         0.0806 
    115 H115       27.8310   -0.0837   -7.9010 H         1 UNK         0.3000 
    116 H116       28.6511   -2.2383   -9.7991 H         1 UNK         0.0850 
    117 H117       29.6175   -1.6343   -6.9490 H         1 UNK         0.0810 
    118 H118       30.1481   -2.9673   -7.9643 H         1 UNK         0.0810 
    119 H119       28.4903   -2.9183   -7.3921 H         1 UNK         0.0810 
    120 H120       28.7595    0.8569   -9.9898 H         1 UNK         0.3040 
    121 H121       30.0408    2.4777  -10.7470 H         1 UNK         0.0766 
    122 H122       31.8426    0.2551  -11.8490 H         1 UNK         0.0812 
    123 H123       30.3739    0.8480  -12.6247 H         1 UNK         0.0812 
    124 H124       31.7573    1.9106  -12.4329 H         1 UNK         0.0812 
    125 H125       30.5291    1.7237   -8.0191 H         1 UNK         0.3205 
    126 H126       31.8083    2.0997   -6.2743 H         1 UNK         0.0754 
    127 H127       33.4191    3.9643   -6.2706 H         1 UNK         0.0769 
    128 H128       31.9964    4.4237   -7.1902 H         1 UNK         0.0769 
    129 H129       33.4820    3.9733   -8.0267 H         1 UNK         0.0769 
    130 H130       32.3791   -0.1584   -7.9851 H         1 UNK         0.2981 
    131 H131       33.6309   -1.8932   -8.0719 H         1 UNK         0.0541 
    132 H132       35.6153    0.2111  -10.6695 H         1 UNK         0.3459 
    133 H133       34.2293    0.7712   -9.7665 H         1 UNK         0.3459 
    134 H134       34.5472   -0.9739   -5.6098 H         1 UNK         0.0612 
    135 H135       36.0445   -1.0706   -6.4711 H         1 UNK         0.0612 
    136 H136       34.7230   -4.4050   -4.1191 H         1 UNK         0.0624 
    137 H137       35.3517   -2.7991   -3.8549 H         1 UNK         0.0624 
@<TRIPOS>BOND
     1    1    2 1    
     2    1   72 1    
     3    1   73 1    
     4    1   74 1    
     5    2    3 2    
     6    2    4 am   BACKBONE|DICT|INTERRES
     7    4    5 1    
     8    4   75 1    
     9    5    6 1    
    10    5   35 1    
    11    5   76 1    
    12    6    7 1    
    13    6   77 1    
    14    6   78 1    
    15    7    8 1    
    16    8    9 1    
    17    8   79 1    
    18    8   80 1    
    19    9   10 ar   
    20    9   14 ar   
    21   10   11 ar   
    22   10   81 1    
    23   11   12 ar   
    24   11   71 1    
    25   12   13 ar   
    26   12   82 1    
    27   13   14 ar   
    28   13   15 1    
    29   14   83 1    
    30   15   16 1    
    31   15   84 1    
    32   15   85 1    
    33   16   17 1    
    34   17   18 1    
    35   17   86 1    
    36   17   87 1    
    37   18   19 1    
    38   18   37 1    
    39   18   88 1    
    40   19   20 am   BACKBONE|DICT|INTERRES
    41   19   89 1    
    42   20   21 2    
    43   20   22 1    
    44   22   23 1    
    45   22   24 1    
    46   22   90 1    
    47   23   91 1    
    48   23   92 1    
    49   23   93 1    
    50   24   25 am   BACKBONE|DICT|INTERRES
    51   24   94 1    
    52   25   26 2    
    53   25   27 1    
    54   27   28 1    
    55   27   29 1    
    56   27   95 1    
    57   28   96 1    
    58   28   97 1    
    59   28   98 1    
    60   29   30 am   BACKBONE|DICT|INTERRES
    61   29   99 1    
    62   30   31 2    
    63   30   32 1    
    64   32   33 1    
    65   32   34 1    
    66   32  100 1    
    67   33  101 1    
    68   33  102 1    
    69   33  103 1    
    70   34   35 am   BACKBONE|DICT|INTERRES
    71   34  104 1    
    72   35   36 2    
    73   37   38 2    
    74   37   39 am   BACKBONE|DICT|INTERRES
    75   39   40 1    
    76   39  105 1    
    77   40   41 1    
    78   40   42 1    
    79   40  106 1    
    80   41  107 1    
    81   41  108 1    
    82   41  109 1    
    83   42   43 2    
    84   42   44 am   BACKBONE|DICT|INTERRES
    85   44   45 1    
    86   44  110 1    
    87   45   46 1    
    88   45   47 1    
    89   45  111 1    
    90   46  112 1    
    91   46  113 1    
    92   46  114 1    
    93   47   48 2    
    94   47   49 am   BACKBONE|DICT|INTERRES
    95   49   50 1    
    96   49  115 1    
    97   50   51 1    
    98   50   52 1    
    99   50  116 1    
   100   51  117 1    
   101   51  118 1    
   102   51  119 1    
   103   52   53 2    
   104   52   54 am   BACKBONE|DICT|INTERRES
   105   54   55 1    
   106   54  120 1    
   107   55   56 1    
   108   55   57 1    
   109   55  121 1    
   110   56  122 1    
   111   56  123 1    
   112   56  124 1    
   113   57   58 2    
   114   57   59 am   BACKBONE|DICT|INTERRES
   115   59   60 1    
   116   59  125 1    
   117   60   61 1    
   118   60   62 1    
   119   60  126 1    
   120   61  127 1    
   121   61  128 1    
   122   61  129 1    
   123   62   63 2    
   124   62   64 am   BACKBONE|DICT|INTERRES
   125   64   65 1    
   126   64  130 1    
   127   65   66 1    
   128   65   69 1    
   129   65  131 1    
   130   66   67 am   BACKBONE|DICT|INTERRES
   131   66   68 2    
   132   67  132 1    
   133   67  133 1    
   134   69   70 1    
   135   69  134 1    
   136   69  135 1    
   137   70   71 1    
   138   71  136 1    
   139   71  137 1    
@<TRIPOS>SUBSTRUCTURE
     1 UNK         1 GROUP             0       ****    0 ROOT    
