@<TRIPOS>MOLECULE
3R137
137   139    1
SMALL
USER_CHARGES


@<TRIPOS>ATOM
      1 CA         25.8239   -7.9286    1.3938 C.3       0 UNK        -0.2020 
      2 C          26.0033   -6.4225    1.5125 C.2       0 UNK         0.4855 
      3 O          25.1836   -5.7579    2.1465 O.2       0 UNK        -0.5197 
      4 N          27.0722   -5.8815    0.9119 N.am      1 UNK        -0.4892 
      5 CA         27.3906   -4.4477    0.8892 C.3       1 UNK         0.0835 
      6 C6         28.8489   -4.2195    0.4179 C.3       12 UNK        -0.0855 
      7 S7         29.5230   -2.5725    0.8291 S.3       12 UNK        -0.2931 
      8 C8         29.2373   -1.6204   -0.7002 C.3       12 UNK         0.0378 
      9 C9         30.1286   -2.0652   -1.8519 C.ar      12 UNK        -0.0802 
     10 C10        31.3803   -1.4741   -2.0481 C.ar      12 UNK        -0.0944 
     11 C11        32.1692   -1.8283   -3.1484 C.ar      12 UNK        -0.0787 
     12 C12        31.7096   -2.7994   -4.0421 C.ar      12 UNK        -0.0862 
     13 C13        30.4537   -3.3870   -3.8630 C.ar      12 UNK        -0.0733 
     14 C14        29.6725   -3.0194   -2.7647 C.ar      12 UNK        -0.0832 
     15 C15        29.8953   -4.3436   -4.9092 C.3       12 UNK         0.0240 
     16 S16        28.3991   -3.6785   -5.7217 S.3       12 UNK        -0.2522 
     17 C17        28.8383   -1.9139   -5.8876 C.3       12 UNK        -0.0967 
     18 CA         27.9536   -1.1441   -6.8832 C.3       5 UNK         0.0660 
     19 N          26.5384   -1.2071   -6.5209 N.am      5 UNK        -0.4015 
     20 C          25.5320   -0.7604   -7.2834 C.2       4 UNK         0.4946 
     21 O          25.6890   -0.2932   -8.4120 O.2       4 UNK        -0.5353 
     22 CA         24.1209   -0.7868   -6.6676 C.3       4 UNK         0.0277 
     23 CB         23.3572   -2.0336   -7.1407 C.3       4 UNK        -0.1981 
     24 N          24.0986   -0.7325   -5.1995 N.am      4 UNK        -0.4209 
     25 C          24.6416    0.2359   -4.4447 C.2       3 UNK         0.4942 
     26 O          25.2379    1.2066   -4.9111 O.2       3 UNK        -0.5208 
     27 CA         24.5383    0.0849   -2.9169 C.3       3 UNK         0.0250 
     28 CB         23.3723    0.9266   -2.3747 C.3       3 UNK        -0.1990 
     29 N          24.3894   -1.3028   -2.4629 N.am      3 UNK        -0.4232 
     30 C          25.3419   -2.2410   -2.5584 C.2       2 UNK         0.4993 
     31 O          26.4416   -2.0506   -3.0802 O.2       2 UNK        -0.5286 
     32 CA         24.9844   -3.6408   -2.0286 C.3       2 UNK         0.0209 
     33 CB         24.7824   -4.6142   -3.2021 C.3       2 UNK        -0.1931 
     34 N          25.9974   -4.1890   -1.1214 N.am      2 UNK        -0.4546 
     35 C          26.3630   -3.6505    0.0528 C.2       1 UNK         0.5154 
     36 O          25.8909   -2.6049    0.5026 O.2       1 UNK        -0.5181 
     37 C          28.4788    0.3007   -7.0258 C.2       5 UNK         0.5014 
     38 O          29.4512    0.5040   -7.7527 O.2       5 UNK        -0.5248 
     39 N          27.8546    1.2792   -6.3484 N.am      6 UNK        -0.4434 
     40 CA         28.1878    2.6978   -6.4968 C.3       6 UNK         0.0363 
     41 CB         27.5347    3.5223   -5.3764 C.3       6 UNK        -0.1936 
     42 C          27.7741    3.2206   -7.8805 C.2       6 UNK         0.5081 
     43 O          28.5767    3.8706   -8.5518 O.2       6 UNK        -0.5248 
     44 N          26.5456    2.8759   -8.2956 N.am      7 UNK        -0.4718 
     45 CA         25.9902    3.1823   -9.6157 C.3       7 UNK         0.0273 
     46 CB         24.4924    2.8385   -9.6408 C.3       7 UNK        -0.1935 
     47 C          26.7378    2.4640  -10.7502 C.2       7 UNK         0.5018 
     48 O          26.9431    3.0598  -11.8089 O.2       7 UNK        -0.5186 
     49 N          27.1860    1.2258  -10.4977 N.am      8 UNK        -0.4240 
     50 CA         28.0466    0.4344  -11.3826 C.3       8 UNK         0.0235 
     51 CB         27.9321   -1.0522  -11.0019 C.3       8 UNK        -0.2000 
     52 C          29.5089    0.9326  -11.3838 C.2       8 UNK         0.4941 
     53 O          30.4264    0.1635  -11.0917 O.2       8 UNK        -0.5273 
     54 N          29.6924    2.2154  -11.7260 N.am      9 UNK        -0.4262 
     55 CA         30.9608    2.9230  -11.9326 C.3       9 UNK         0.0264 
     56 CB         31.6330    2.4267  -13.2312 C.3       9 UNK        -0.1955 
     57 C          31.9168    2.8965  -10.7213 C.2       9 UNK         0.5031 
     58 O          33.1308    2.8173  -10.9184 O.2       9 UNK        -0.5390 
     59 N          31.3571    2.9927   -9.5043 N.am      10 UNK        -0.4204 
     60 CA         32.0478    3.0137   -8.2089 C.3       10 UNK         0.0237 
     61 CB         32.8500    4.3218   -8.0393 C.3       10 UNK        -0.1985 
     62 C          32.9027    1.7550   -7.9628 C.2       10 UNK         0.4970 
     63 O          34.1296    1.8098   -8.0716 O.2       10 UNK        -0.4914 
     64 N          32.2244    0.6531   -7.6216 N.am      11 UNK        -0.4285 
     65 CA         32.7967   -0.6707   -7.3200 C.3       11 UNK         0.1007 
     66 C          33.2634   -1.4532   -8.5848 C.2       11 UNK         0.5703 
     67 N          32.7512   -1.1640   -9.7750 N.am      11 UNK        -0.7361 
     68 O          34.0861   -2.3616   -8.4909 O.2       11 UNK        -0.4986 
     69 C69        33.8669   -0.6686   -6.1822 C.3       12 UNK        -0.0947 
     70 S70        33.3507    0.1781   -4.6449 S.3       12 UNK        -0.2240 
     71 C71        33.5013   -1.1350   -3.3879 C.3       12 UNK         0.0194 
     72 H72        24.8759   -8.1560    0.9070 H         1 UNK         0.0906 
     73 H73        26.6222   -8.3916    0.8139 H         1 UNK         0.0906 
     74 H74        25.8164   -8.3845    2.3836 H         1 UNK         0.0906 
     75 H75        27.7153   -6.4853    0.4187 H         1 UNK         0.3140 
     76 H76        27.3110   -4.0878    1.9179 H         1 UNK         0.1085 
     77 H77        29.5007   -4.9349    0.9224 H         1 UNK         0.0836 
     78 H78        28.9610   -4.4407   -0.6412 H         1 UNK         0.0836 
     79 H79        28.1881   -1.6830   -0.9888 H         1 UNK         0.0731 
     80 H80        29.4193   -0.5659   -0.4877 H         1 UNK         0.0731 
     81 H81        31.7280   -0.7173   -1.3580 H         1 UNK         0.1312 
     82 H82        32.3112   -3.0620   -4.9012 H         1 UNK         0.1406 
     83 H83        28.6813   -3.4387   -2.6573 H         1 UNK         0.1631 
     84 H84        29.6542   -5.2979   -4.4394 H         1 UNK         0.0717 
     85 H85        30.6425   -4.5555   -5.6756 H         1 UNK         0.0717 
     86 H86        28.7798   -1.4473   -4.9018 H         1 UNK         0.0934 
     87 H87        29.8829   -1.8579   -6.1952 H         1 UNK         0.0934 
     88 H88        28.0558   -1.6242   -7.8562 H         1 UNK         0.0739 
     89 H89        26.3321   -1.5806   -5.6039 H         1 UNK         0.3093 
     90 H90        23.5963    0.0980   -7.0339 H         1 UNK         0.0818 
     91 H91        22.3211   -2.0186   -6.8021 H         1 UNK         0.0819 
     92 H92        23.3380   -2.0888   -8.2303 H         1 UNK         0.0819 
     93 H93        23.8184   -2.9526   -6.7764 H         1 UNK         0.0819 
     94 H94        23.6269   -1.4888   -4.7262 H         1 UNK         0.3041 
     95 H95        25.4662    0.4753   -2.4927 H         1 UNK         0.0784 
     96 H96        22.4096    0.5726   -2.7459 H         1 UNK         0.0793 
     97 H97        23.4729    1.9709   -2.6745 H         1 UNK         0.0793 
     98 H98        23.3414    0.9072   -1.2851 H         1 UNK         0.0793 
     99 H99        23.5115   -1.5389   -2.0221 H         1 UNK         0.3024 
    100 H100       24.0491   -3.5777   -1.4681 H         1 UNK         0.1171 
    101 H101       24.4692   -5.5988   -2.8541 H         1 UNK         0.0786 
    102 H102       24.0107   -4.2532   -3.8834 H         1 UNK         0.0786 
    103 H103       25.6972   -4.7380   -3.7843 H         1 UNK         0.0786 
    104 H104       26.4310   -5.0556   -1.4025 H         1 UNK         0.2977 
    105 H105       27.0411    1.0610   -5.7801 H         1 UNK         0.3127 
    106 H106       29.2685    2.8045   -6.3977 H         1 UNK         0.0770 
    107 H107       26.4462    3.5063   -5.4372 H         1 UNK         0.0814 
    108 H108       27.8460    4.5661   -5.4332 H         1 UNK         0.0814 
    109 H109       27.8203    3.1514   -4.3919 H         1 UNK         0.0814 
    110 H110       25.9764    2.3076   -7.6843 H         1 UNK         0.2983 
    111 H111       26.0980    4.2566   -9.7810 H         1 UNK         0.0947 
    112 H112       24.0520    3.0917  -10.6062 H         1 UNK         0.0806 
    113 H113       23.9443    3.3949   -8.8803 H         1 UNK         0.0806 
    114 H114       24.3158    1.7757   -9.4723 H         1 UNK         0.0806 
    115 H115       26.9205    0.7952   -9.6174 H         1 UNK         0.3000 
    116 H116       27.6726    0.5399  -12.4033 H         1 UNK         0.0850 
    117 H117       26.8930   -1.3807  -10.9705 H         1 UNK         0.0810 
    118 H118       28.3787   -1.2487  -10.0289 H         1 UNK         0.0810 
    119 H119       28.4516   -1.6796  -11.7271 H         1 UNK         0.0810 
    120 H120       28.8496    2.7562  -11.9048 H         1 UNK         0.3040 
    121 H121       30.6988    3.9717  -12.0797 H         1 UNK         0.0766 
    122 H122       30.9518    2.4869  -14.0798 H         1 UNK         0.0812 
    123 H123       31.9658    1.3920  -13.1403 H         1 UNK         0.0812 
    124 H124       32.5074    3.0301  -13.4781 H         1 UNK         0.0812 
    125 H125       30.3458    3.0620   -9.4505 H         1 UNK         0.3205 
    126 H126       31.2701    3.0183   -7.4462 H         1 UNK         0.0754 
    127 H127       33.6470    4.4126   -8.7780 H         1 UNK         0.0769 
    128 H128       33.3153    4.3663   -7.0538 H         1 UNK         0.0769 
    129 H129       32.2050    5.1954   -8.1336 H         1 UNK         0.0769 
    130 H130       31.2050    0.6845   -7.6347 H         1 UNK         0.2981 
    131 H131       31.9574   -1.2540   -6.9458 H         1 UNK         0.0541 
    132 H132       32.0239   -0.4680   -9.8935 H         1 UNK         0.3459 
    133 H133       33.0618   -1.6883  -10.5764 H         1 UNK         0.3459 
    134 H134       34.7879   -0.1965   -6.5264 H         1 UNK         0.0612 
    135 H135       34.1435   -1.6951   -5.9393 H         1 UNK         0.0612 
    136 H136       33.8556   -0.6808   -2.4613 H         1 UNK         0.0624 
    137 H137       34.2634   -1.8614   -3.6726 H         1 UNK         0.0624 
@<TRIPOS>BOND
     1    1    2 1    
     2    1   72 1    
     3    1   73 1    
     4    1   74 1    
     5    2    3 2    
     6    2    4 am   BACKBONE|DICT|INTERRES
     7    4    5 1    
     8    4   75 1    
     9    5    6 1    
    10    5   35 1    
    11    5   76 1    
    12    6    7 1    
    13    6   77 1    
    14    6   78 1    
    15    7    8 1    
    16    8    9 1    
    17    8   79 1    
    18    8   80 1    
    19    9   10 ar   
    20    9   14 ar   
    21   10   11 ar   
    22   10   81 1    
    23   11   12 ar   
    24   11   71 1    
    25   12   13 ar   
    26   12   82 1    
    27   13   14 ar   
    28   13   15 1    
    29   14   83 1    
    30   15   16 1    
    31   15   84 1    
    32   15   85 1    
    33   16   17 1    
    34   17   18 1    
    35   17   86 1    
    36   17   87 1    
    37   18   19 1    
    38   18   37 1    
    39   18   88 1    
    40   19   20 am   BACKBONE|DICT|INTERRES
    41   19   89 1    
    42   20   21 2    
    43   20   22 1    
    44   22   23 1    
    45   22   24 1    
    46   22   90 1    
    47   23   91 1    
    48   23   92 1    
    49   23   93 1    
    50   24   25 am   BACKBONE|DICT|INTERRES
    51   24   94 1    
    52   25   26 2    
    53   25   27 1    
    54   27   28 1    
    55   27   29 1    
    56   27   95 1    
    57   28   96 1    
    58   28   97 1    
    59   28   98 1    
    60   29   30 am   BACKBONE|DICT|INTERRES
    61   29   99 1    
    62   30   31 2    
    63   30   32 1    
    64   32   33 1    
    65   32   34 1    
    66   32  100 1    
    67   33  101 1    
    68   33  102 1    
    69   33  103 1    
    70   34   35 am   BACKBONE|DICT|INTERRES
    71   34  104 1    
    72   35   36 2    
    73   37   38 2    
    74   37   39 am   BACKBONE|DICT|INTERRES
    75   39   40 1    
    76   39  105 1    
    77   40   41 1    
    78   40   42 1    
    79   40  106 1    
    80   41  107 1    
    81   41  108 1    
    82   41  109 1    
    83   42   43 2    
    84   42   44 am   BACKBONE|DICT|INTERRES
    85   44   45 1    
    86   44  110 1    
    87   45   46 1    
    88   45   47 1    
    89   45  111 1    
    90   46  112 1    
    91   46  113 1    
    92   46  114 1    
    93   47   48 2    
    94   47   49 am   BACKBONE|DICT|INTERRES
    95   49   50 1    
    96   49  115 1    
    97   50   51 1    
    98   50   52 1    
    99   50  116 1    
   100   51  117 1    
   101   51  118 1    
   102   51  119 1    
   103   52   53 2    
   104   52   54 am   BACKBONE|DICT|INTERRES
   105   54   55 1    
   106   54  120 1    
   107   55   56 1    
   108   55   57 1    
   109   55  121 1    
   110   56  122 1    
   111   56  123 1    
   112   56  124 1    
   113   57   58 2    
   114   57   59 am   BACKBONE|DICT|INTERRES
   115   59   60 1    
   116   59  125 1    
   117   60   61 1    
   118   60   62 1    
   119   60  126 1    
   120   61  127 1    
   121   61  128 1    
   122   61  129 1    
   123   62   63 2    
   124   62   64 am   BACKBONE|DICT|INTERRES
   125   64   65 1    
   126   64  130 1    
   127   65   66 1    
   128   65   69 1    
   129   65  131 1    
   130   66   67 am   BACKBONE|DICT|INTERRES
   131   66   68 2    
   132   67  132 1    
   133   67  133 1    
   134   69   70 1    
   135   69  134 1    
   136   69  135 1    
   137   70   71 1    
   138   71  136 1    
   139   71  137 1    
@<TRIPOS>SUBSTRUCTURE
     1 UNK         1 GROUP             0       ****    0 ROOT    
