@<TRIPOS>MOLECULE
3R137
137   139    1
SMALL
USER_CHARGES


@<TRIPOS>ATOM
      1 CA         29.9198   -8.5690   -5.6148 C.3       0 UNK        -0.2020 
      2 C          28.9133   -7.7405   -4.8303 C.2       0 UNK         0.4855 
      3 O          28.0642   -8.3029   -4.1380 O.2       0 UNK        -0.5197 
      4 N          29.0086   -6.4087   -4.9253 N.am      1 UNK        -0.4892 
      5 CA         28.1049   -5.4494   -4.2799 C.3       1 UNK         0.0835 
      6 C6         28.6836   -4.0116   -4.3034 C.3       12 UNK        -0.0855 
      7 S7         30.2772   -3.9258   -3.4151 S.3       12 UNK        -0.2931 
      8 C8         29.8981   -2.8036   -2.0215 C.3       12 UNK         0.0378 
      9 C9         30.0882   -1.3079   -2.2941 C.ar      12 UNK        -0.0802 
     10 C10        30.7362   -0.8182   -3.4369 C.ar      12 UNK        -0.0944 
     11 C11        30.9316    0.5532   -3.6173 C.ar      12 UNK        -0.0787 
     12 C12        30.4934    1.4466   -2.6390 C.ar      12 UNK        -0.0862 
     13 C13        29.8399    0.9798   -1.4958 C.ar      12 UNK        -0.0733 
     14 C14        29.6379   -0.3949   -1.3331 C.ar      12 UNK        -0.0832 
     15 C15        29.3734    1.9571   -0.4255 C.3       12 UNK         0.0240 
     16 S16        27.6550    2.4975   -0.6936 S.3       12 UNK        -0.2522 
     17 C17        27.8290    3.6053   -2.1347 C.3       12 UNK        -0.0967 
     18 CA         27.3706    2.9308   -3.4508 C.3       5 UNK         0.0660 
     19 N          25.9596    2.5216   -3.3875 N.am      5 UNK        -0.4015 
     20 C          25.3093    1.8437   -4.3393 C.2       4 UNK         0.4946 
     21 O          25.7810    1.6098   -5.4530 O.2       4 UNK        -0.5353 
     22 CA         23.8740    1.3968   -4.0222 C.3       4 UNK         0.0277 
     23 CB         22.8782    2.5037   -4.4059 C.3       4 UNK        -0.1981 
     24 N          23.5353    0.1745   -4.7550 N.am      4 UNK        -0.4209 
     25 C          24.0968   -1.0199   -4.5301 C.2       3 UNK         0.4942 
     26 O          24.8623   -1.2611   -3.5910 O.2       3 UNK        -0.5208 
     27 CA         23.7627   -2.1240   -5.5383 C.3       3 UNK         0.0250 
     28 CB         24.5169   -1.9080   -6.8652 C.3       3 UNK        -0.1990 
     29 N          24.1468   -3.4027   -4.9531 N.am      3 UNK        -0.4232 
     30 C          23.6852   -4.6062   -5.3050 C.2       2 UNK         0.4993 
     31 O          22.8483   -4.7827   -6.1929 O.2       2 UNK        -0.5286 
     32 CA         24.2504   -5.8091   -4.5213 C.3       2 UNK         0.0209 
     33 CB         24.0353   -7.1527   -5.2525 C.3       2 UNK        -0.1931 
     34 N          25.6616   -5.6539   -4.1290 N.am      2 UNK        -0.4546 
     35 C          26.7157   -5.5047   -4.9475 C.2       1 UNK         0.5154 
     36 O          26.6354   -5.4144   -6.1752 O.2       1 UNK        -0.5181 
     37 C          27.7330    3.8148   -4.6658 C.2       5 UNK         0.5014 
     38 O          28.8783    3.7737   -5.1156 O.2       5 UNK        -0.5248 
     39 N          26.7636    4.5842   -5.1803 N.am      6 UNK        -0.4434 
     40 CA         26.9086    5.4025   -6.3866 C.3       6 UNK         0.0363 
     41 CB         25.8902    6.5534   -6.3295 C.3       6 UNK        -0.1936 
     42 C          26.7363    4.6053   -7.6952 C.2       6 UNK         0.5081 
     43 O          27.1615    5.0911   -8.7439 O.2       6 UNK        -0.5248 
     44 N          26.0976    3.4292   -7.6307 N.am      7 UNK        -0.4718 
     45 CA         25.7769    2.5825   -8.7831 C.3       7 UNK         0.0273 
     46 CB         24.3145    2.1209   -8.6642 C.3       7 UNK        -0.1935 
     47 C          26.7068    1.3640   -8.8946 C.2       7 UNK         0.5018 
     48 O          26.9282    0.8860  -10.0077 O.2       7 UNK        -0.5186 
     49 N          27.2092    0.8718   -7.7532 N.am      8 UNK        -0.4240 
     50 CA         28.0918   -0.2872   -7.6186 C.3       8 UNK         0.0235 
     51 CB         28.3867   -0.5153   -6.1262 C.3       8 UNK        -0.2000 
     52 C          29.3947   -0.1428   -8.4249 C.2       8 UNK         0.4941 
     53 O          30.2306    0.7021   -8.0990 O.2       8 UNK        -0.5273 
     54 N          29.5490   -0.9892   -9.4521 N.am      9 UNK        -0.4262 
     55 CA         30.6927   -0.9991  -10.3710 C.3       9 UNK         0.0264 
     56 CB         30.3323   -1.8357  -11.6097 C.3       9 UNK        -0.1955 
     57 C          32.0045   -1.5065   -9.7450 C.2       9 UNK         0.5031 
     58 O          33.0692   -1.2671  -10.3161 O.2       9 UNK        -0.5390 
     59 N          31.9185   -2.1823   -8.5894 N.am      10 UNK        -0.4204 
     60 CA         33.0424   -2.7539   -7.8375 C.3       10 UNK         0.0237 
     61 CB         32.4942   -3.4998   -6.6097 C.3       10 UNK        -0.1985 
     62 C          34.1205   -1.7371   -7.4127 C.2       10 UNK         0.4970 
     63 O          35.2740   -2.1308   -7.2354 O.2       10 UNK        -0.4914 
     64 N          33.7375   -0.4616   -7.2763 N.am      11 UNK        -0.4285 
     65 CA         34.6496    0.6636   -7.0216 C.3       11 UNK         0.1007 
     66 C          35.3790    1.1894   -8.2940 C.2       11 UNK         0.5703 
     67 N          35.0847    0.7056   -9.4959 N.am      11 UNK        -0.7361 
     68 O          36.2488    2.0509   -8.1864 O.2       11 UNK        -0.4986 
     69 C69        33.9354    1.8111   -6.2606 C.3       12 UNK        -0.0947 
     70 S70        33.3941    1.2993   -4.5968 S.3       12 UNK        -0.2240 
     71 C71        31.6144    1.0701   -4.8717 C.3       12 UNK         0.0194 
     72 H72        29.4025   -9.2112   -6.3272 H         1 UNK         0.0906 
     73 H73        30.6204   -7.9440   -6.1683 H         1 UNK         0.0906 
     74 H74        30.4928   -9.2025   -4.9382 H         1 UNK         0.0906 
     75 H75        29.7237   -6.0006   -5.5095 H         1 UNK         0.3140 
     76 H76        27.9969   -5.7520   -3.2356 H         1 UNK         0.1085 
     77 H77        28.8450   -3.6811   -5.3310 H         1 UNK         0.0836 
     78 H78        27.9807   -3.3005   -3.8645 H         1 UNK         0.0836 
     79 H79        30.5546   -3.0751   -1.1938 H         1 UNK         0.0731 
     80 H80        28.8809   -2.9912   -1.6741 H         1 UNK         0.0731 
     81 H81        31.1048   -1.4943   -4.1928 H         1 UNK         0.1312 
     82 H82        30.6598    2.5062   -2.7751 H         1 UNK         0.1406 
     83 H83        29.1407   -0.7564   -0.4428 H         1 UNK         0.1631 
     84 H84        30.0325    2.8258   -0.3852 H         1 UNK         0.0717 
     85 H85        29.4405    1.4852    0.5560 H         1 UNK         0.0717 
     86 H86        27.2407    4.5052   -1.9447 H         1 UNK         0.0934 
     87 H87        28.8647    3.9423   -2.2048 H         1 UNK         0.0934 
     88 H88        27.9405    2.0083   -3.5769 H         1 UNK         0.0739 
     89 H89        25.5005    2.6803   -2.5020 H         1 UNK         0.3093 
     90 H90        23.7921    1.1929   -2.9523 H         1 UNK         0.0818 
     91 H91        23.0763    3.4211   -3.8500 H         1 UNK         0.0819 
     92 H92        22.9336    2.7479   -5.4679 H         1 UNK         0.0819 
     93 H93        21.8525    2.2093   -4.1828 H         1 UNK         0.0819 
     94 H94        22.9402    0.2857   -5.5624 H         1 UNK         0.3041 
     95 H95        22.6851   -2.1162   -5.7157 H         1 UNK         0.0784 
     96 H96        24.2477   -2.6638   -7.6030 H         1 UNK         0.0793 
     97 H97        25.5960   -1.9567   -6.7196 H         1 UNK         0.0793 
     98 H98        24.2896   -0.9352   -7.3020 H         1 UNK         0.0793 
     99 H99        24.7927   -3.3175   -4.1775 H         1 UNK         0.3024 
    100 H100       23.6764   -5.8494   -3.5938 H         1 UNK         0.1171 
    101 H101       22.9745   -7.3439   -5.4190 H         1 UNK         0.0786 
    102 H102       24.5243   -7.1656   -6.2272 H         1 UNK         0.0786 
    103 H103       24.4258   -7.9880   -4.6711 H         1 UNK         0.0786 
    104 H104       25.8375   -5.7092   -3.1347 H         1 UNK         0.2977 
    105 H105       25.8525    4.5670   -4.7460 H         1 UNK         0.3127 
    106 H106       27.9103    5.8382   -6.3998 H         1 UNK         0.0770 
    107 H107       25.9913    7.2072   -7.1970 H         1 UNK         0.0814 
    108 H108       26.0372    7.1708   -5.4431 H         1 UNK         0.0814 
    109 H109       24.8635    6.1852   -6.3181 H         1 UNK         0.0814 
    110 H110       25.8505    3.0515   -6.7211 H         1 UNK         0.2983 
    111 H111       25.8756    3.1527   -9.7095 H         1 UNK         0.0947 
    112 H112       24.0358    1.4819   -9.5034 H         1 UNK         0.0806 
    113 H113       23.6312    2.9701   -8.6631 H         1 UNK         0.0806 
    114 H114       24.1432    1.5529   -7.7492 H         1 UNK         0.0806 
    115 H115       26.8898    1.2887   -6.8823 H         1 UNK         0.3000 
    116 H116       27.5462   -1.1563   -7.9905 H         1 UNK         0.0850 
    117 H117       28.8168    0.3749   -5.6661 H         1 UNK         0.0810 
    118 H118       29.0933   -1.3325   -5.9815 H         1 UNK         0.0810 
    119 H119       27.4810   -0.7644   -5.5724 H         1 UNK         0.0810 
    120 H120       28.8003   -1.6337   -9.6638 H         1 UNK         0.3040 
    121 H121       30.8701    0.0289  -10.6948 H         1 UNK         0.0766 
    122 H122       29.4537   -1.4362  -12.1169 H         1 UNK         0.0812 
    123 H123       30.1289   -2.8757  -11.3509 H         1 UNK         0.0812 
    124 H124       31.1487   -1.8343  -12.3336 H         1 UNK         0.0812 
    125 H125       30.9971   -2.3326   -8.2072 H         1 UNK         0.3205 
    126 H126       33.5302   -3.4809   -8.4900 H         1 UNK         0.0754 
    127 H127       31.8165   -4.3030   -6.8996 H         1 UNK         0.0769 
    128 H128       31.9543   -2.8302   -5.9402 H         1 UNK         0.0769 
    129 H129       33.3015   -3.9537   -6.0330 H         1 UNK         0.0769 
    130 H130       32.7759   -0.2196   -7.4647 H         1 UNK         0.2981 
    131 H131       35.4484    0.3019   -6.3712 H         1 UNK         0.0541 
    132 H132       34.3799   -0.0140   -9.6242 H         1 UNK         0.3459 
    133 H133       35.5796    1.0619  -10.2976 H         1 UNK         0.3459 
    134 H134       34.6073    2.6604   -6.1245 H         1 UNK         0.0612 
    135 H135       33.0852    2.1859   -6.8338 H         1 UNK         0.0612 
    136 H136       31.1651    2.0150   -5.1818 H         1 UNK         0.0624 
    137 H137       31.4622    0.3703   -5.6938 H         1 UNK         0.0624 
@<TRIPOS>BOND
     1    1    2 1    
     2    1   72 1    
     3    1   73 1    
     4    1   74 1    
     5    2    3 2    
     6    2    4 am   BACKBONE|DICT|INTERRES
     7    4    5 1    
     8    4   75 1    
     9    5    6 1    
    10    5   35 1    
    11    5   76 1    
    12    6    7 1    
    13    6   77 1    
    14    6   78 1    
    15    7    8 1    
    16    8    9 1    
    17    8   79 1    
    18    8   80 1    
    19    9   10 ar   
    20    9   14 ar   
    21   10   11 ar   
    22   10   81 1    
    23   11   12 ar   
    24   11   71 1    
    25   12   13 ar   
    26   12   82 1    
    27   13   14 ar   
    28   13   15 1    
    29   14   83 1    
    30   15   16 1    
    31   15   84 1    
    32   15   85 1    
    33   16   17 1    
    34   17   18 1    
    35   17   86 1    
    36   17   87 1    
    37   18   19 1    
    38   18   37 1    
    39   18   88 1    
    40   19   20 am   BACKBONE|DICT|INTERRES
    41   19   89 1    
    42   20   21 2    
    43   20   22 1    
    44   22   23 1    
    45   22   24 1    
    46   22   90 1    
    47   23   91 1    
    48   23   92 1    
    49   23   93 1    
    50   24   25 am   BACKBONE|DICT|INTERRES
    51   24   94 1    
    52   25   26 2    
    53   25   27 1    
    54   27   28 1    
    55   27   29 1    
    56   27   95 1    
    57   28   96 1    
    58   28   97 1    
    59   28   98 1    
    60   29   30 am   BACKBONE|DICT|INTERRES
    61   29   99 1    
    62   30   31 2    
    63   30   32 1    
    64   32   33 1    
    65   32   34 1    
    66   32  100 1    
    67   33  101 1    
    68   33  102 1    
    69   33  103 1    
    70   34   35 am   BACKBONE|DICT|INTERRES
    71   34  104 1    
    72   35   36 2    
    73   37   38 2    
    74   37   39 am   BACKBONE|DICT|INTERRES
    75   39   40 1    
    76   39  105 1    
    77   40   41 1    
    78   40   42 1    
    79   40  106 1    
    80   41  107 1    
    81   41  108 1    
    82   41  109 1    
    83   42   43 2    
    84   42   44 am   BACKBONE|DICT|INTERRES
    85   44   45 1    
    86   44  110 1    
    87   45   46 1    
    88   45   47 1    
    89   45  111 1    
    90   46  112 1    
    91   46  113 1    
    92   46  114 1    
    93   47   48 2    
    94   47   49 am   BACKBONE|DICT|INTERRES
    95   49   50 1    
    96   49  115 1    
    97   50   51 1    
    98   50   52 1    
    99   50  116 1    
   100   51  117 1    
   101   51  118 1    
   102   51  119 1    
   103   52   53 2    
   104   52   54 am   BACKBONE|DICT|INTERRES
   105   54   55 1    
   106   54  120 1    
   107   55   56 1    
   108   55   57 1    
   109   55  121 1    
   110   56  122 1    
   111   56  123 1    
   112   56  124 1    
   113   57   58 2    
   114   57   59 am   BACKBONE|DICT|INTERRES
   115   59   60 1    
   116   59  125 1    
   117   60   61 1    
   118   60   62 1    
   119   60  126 1    
   120   61  127 1    
   121   61  128 1    
   122   61  129 1    
   123   62   63 2    
   124   62   64 am   BACKBONE|DICT|INTERRES
   125   64   65 1    
   126   64  130 1    
   127   65   66 1    
   128   65   69 1    
   129   65  131 1    
   130   66   67 am   BACKBONE|DICT|INTERRES
   131   66   68 2    
   132   67  132 1    
   133   67  133 1    
   134   69   70 1    
   135   69  134 1    
   136   69  135 1    
   137   70   71 1    
   138   71  136 1    
   139   71  137 1    
@<TRIPOS>SUBSTRUCTURE
     1 UNK         1 GROUP             0       ****    0 ROOT    
