@<TRIPOS>MOLECULE
3R137
137   139    1
SMALL
USER_CHARGES


@<TRIPOS>ATOM
      1 CA         26.3615   -6.6337   -0.3474 C.3       0 UNK        -0.2020 
      2 C          26.7945   -5.2078   -0.6524 C.2       0 UNK         0.4855 
      3 O          27.0155   -4.8763   -1.8171 O.2       0 UNK        -0.5197 
      4 N          26.8988   -4.3640    0.3845 N.am      1 UNK        -0.4892 
      5 CA         27.3227   -2.9507    0.3828 C.3       1 UNK         0.0835 
      6 C6         28.7320   -2.6994   -0.2174 C.3       12 UNK        -0.0855 
      7 S7         30.0447   -3.7551    0.4969 S.3       12 UNK        -0.2931 
      8 C8         31.5472   -2.7477    0.2455 C.3       12 UNK         0.0378 
      9 C9         31.6194   -2.1591   -1.1572 C.ar      12 UNK        -0.0802 
     10 C10        31.8999   -2.9738   -2.2596 C.ar      12 UNK        -0.0944 
     11 C11        31.8848   -2.4420   -3.5536 C.ar      12 UNK        -0.0787 
     12 C12        31.5895   -1.0875   -3.7372 C.ar      12 UNK        -0.0862 
     13 C13        31.3297   -0.2615   -2.6409 C.ar      12 UNK        -0.0733 
     14 C14        31.3598   -0.7994   -1.3529 C.ar      12 UNK        -0.0832 
     15 C15        30.9795    1.2037   -2.8502 C.3       12 UNK         0.0240 
     16 S16        29.2542    1.5760   -2.3898 S.3       12 UNK        -0.2522 
     17 C17        28.3046    0.3870   -3.3991 C.3       12 UNK        -0.0967 
     18 CA         28.1720    0.8055   -4.8845 C.3       5 UNK         0.0660 
     19 N          27.8227   -0.3370   -5.7308 N.am      5 UNK        -0.4015 
     20 C          27.9316   -0.3541   -7.0671 C.2       4 UNK         0.4946 
     21 O          28.4249    0.5626   -7.7241 O.2       4 UNK        -0.5353 
     22 CA         27.3798   -1.5836   -7.8117 C.3       4 UNK         0.0277 
     23 CB         28.5034   -2.6028   -8.0573 C.3       4 UNK        -0.1981 
     24 N          26.2645   -2.2460   -7.1299 N.am      4 UNK        -0.4209 
     25 C          25.0980   -1.6711   -6.8035 C.2       3 UNK         0.4942 
     26 O          24.8093   -0.5072   -7.0806 O.2       3 UNK        -0.5208 
     27 CA         24.1112   -2.5048   -5.9655 C.3       3 UNK         0.0250 
     28 CB         24.3551   -4.0288   -6.0526 C.3       3 UNK        -0.1990 
     29 N          24.0793   -2.0801   -4.5578 N.am      3 UNK        -0.4232 
     30 C          25.1238   -1.9621   -3.7224 C.2       2 UNK         0.4993 
     31 O          26.2977   -2.1132   -4.0705 O.2       2 UNK        -0.5286 
     32 CA         24.8291   -1.6160   -2.2541 C.3       2 UNK         0.0209 
     33 CB         23.3824   -1.9139   -1.8062 C.3       2 UNK        -0.1931 
     34 N          25.7708   -2.3673   -1.4306 N.am      2 UNK        -0.4546 
     35 C          26.2866   -1.9980   -0.2563 C.2       1 UNK         0.5154 
     36 O          25.9742   -0.9591    0.3271 O.2       1 UNK        -0.5181 
     37 C          27.1704    1.9641   -5.0654 C.2       5 UNK         0.5014 
     38 O          27.5887    3.1155   -5.1874 O.2       5 UNK        -0.5248 
     39 N          25.8702    1.6364   -5.1121 N.am      6 UNK        -0.4434 
     40 CA         24.7792    2.5945   -5.3082 C.3       6 UNK         0.0363 
     41 CB         23.4413    1.9351   -4.9350 C.3       6 UNK        -0.1936 
     42 C          24.7416    3.1453   -6.7430 C.2       6 UNK         0.5081 
     43 O          24.4849    4.3341   -6.9324 O.2       6 UNK        -0.5248 
     44 N          25.0303    2.2781   -7.7223 N.am      7 UNK        -0.4718 
     45 CA         25.1608    2.6241   -9.1399 C.3       7 UNK         0.0273 
     46 CB         25.0985    1.3310   -9.9694 C.3       7 UNK        -0.1935 
     47 C          26.4477    3.4036   -9.4728 C.2       7 UNK         0.5018 
     48 O          26.5194    3.9891  -10.5538 O.2       7 UNK        -0.5186 
     49 N          27.4355    3.3754   -8.5631 N.am      8 UNK        -0.4240 
     50 CA         28.7944    3.9164   -8.6963 C.3       8 UNK         0.0235 
     51 CB         28.7744    5.4575   -8.7789 C.3       8 UNK        -0.2000 
     52 C          29.5661    3.2521   -9.8542 C.2       8 UNK         0.4941 
     53 O          30.2185    3.9350  -10.6457 O.2       8 UNK        -0.5273 
     54 N          29.4621    1.9193   -9.9304 N.am      9 UNK        -0.4262 
     55 CA         30.0136    1.0804  -10.9967 C.3       9 UNK         0.0264 
     56 CB         29.0175   -0.0569  -11.2850 C.3       9 UNK        -0.1955 
     57 C          31.4130    0.5247  -10.6723 C.2       9 UNK         0.5031 
     58 O          31.9153   -0.2996  -11.4382 O.2       9 UNK        -0.5390 
     59 N          32.0096    0.9495   -9.5459 N.am      10 UNK        -0.4204 
     60 CA         33.3487    0.5836   -9.0549 C.3       10 UNK         0.0237 
     61 CB         34.4374    1.2336   -9.9356 C.3       10 UNK        -0.1985 
     62 C          33.5444   -0.9384   -8.8894 C.2       10 UNK         0.4970 
     63 O          34.6038   -1.4685   -9.2288 O.2       10 UNK        -0.4914 
     64 N          32.4950   -1.6038   -8.3899 N.am      11 UNK        -0.4285 
     65 CA         32.3777   -3.0631   -8.2229 C.3       11 UNK         0.1007 
     66 C          32.2570   -3.8638   -9.5562 C.2       11 UNK         0.5703 
     67 N          32.0782   -3.2294  -10.7100 N.am      11 UNK        -0.7361 
     68 O          32.2871   -5.0921   -9.5426 O.2       11 UNK        -0.4986 
     69 C69        33.4278   -3.6826   -7.2495 C.3       12 UNK        -0.0947 
     70 S70        33.6170   -2.7724   -5.6796 S.3       12 UNK        -0.2240 
     71 C71        32.1470   -3.3276   -4.7626 C.3       12 UNK         0.0194 
     72 H72        27.1278   -7.3351   -0.6763 H         1 UNK         0.0906 
     73 H73        26.1926   -6.7918    0.7176 H         1 UNK         0.0906 
     74 H74        25.4374   -6.8663   -0.8759 H         1 UNK         0.0906 
     75 H75        26.6714   -4.7184    1.3036 H         1 UNK         0.3140 
     76 H76        27.3732   -2.6703    1.4365 H         1 UNK         0.1085 
     77 H77        29.0057   -1.6545   -0.0610 H         1 UNK         0.0836 
     78 H78        28.7278   -2.8519   -1.2988 H         1 UNK         0.0836 
     79 H79        32.4266   -3.3670    0.4275 H         1 UNK         0.0731 
     80 H80        31.5707   -1.9566    0.9967 H         1 UNK         0.0731 
     81 H81        32.0987   -4.0261   -2.1086 H         1 UNK         0.1312 
     82 H82        31.5587   -0.6802   -4.7386 H         1 UNK         0.1406 
     83 H83        31.1372   -0.1630   -0.5068 H         1 UNK         0.1631 
     84 H84        31.6463    1.8213   -2.2470 H         1 UNK         0.0717 
     85 H85        31.1459    1.5002   -3.8867 H         1 UNK         0.0717 
     86 H86        28.7749   -0.5938   -3.3207 H         1 UNK         0.0934 
     87 H87        27.3236    0.2603   -2.9386 H         1 UNK         0.0934 
     88 H88        29.1458    1.1615   -5.2269 H         1 UNK         0.0739 
     89 H89        27.3881   -1.1288   -5.2603 H         1 UNK         0.3093 
     90 H90        27.0112   -1.2392   -8.7792 H         1 UNK         0.0818 
     91 H91        29.3425   -2.1421   -8.5787 H         1 UNK         0.0819 
     92 H92        28.1593   -3.4322   -8.6755 H         1 UNK         0.0819 
     93 H93        28.8854   -3.0154   -7.1225 H         1 UNK         0.0819 
     94 H94        26.4224   -3.1934   -6.8183 H         1 UNK         0.3041 
     95 H95        23.1211   -2.3044   -6.3780 H         1 UNK         0.0784 
     96 H96        24.3815   -4.3677   -7.0893 H         1 UNK         0.0793 
     97 H97        25.2899   -4.3289   -5.5772 H         1 UNK         0.0793 
     98 H98        23.5519   -4.5776   -5.5608 H         1 UNK         0.0793 
     99 H99        23.1578   -1.9035   -4.1829 H         1 UNK         0.3024 
    100 H100       25.0234   -0.5480   -2.1340 H         1 UNK         0.1171 
    101 H101       23.2496   -1.7034   -0.7447 H         1 UNK         0.0786 
    102 H102       22.6614   -1.2936   -2.3396 H         1 UNK         0.0786 
    103 H103       23.1156   -2.9591   -1.9692 H         1 UNK         0.0786 
    104 H104       26.1475   -3.2149   -1.8538 H         1 UNK         0.2977 
    105 H105       25.6150    0.6597   -5.1028 H         1 UNK         0.3127 
    106 H106       24.9421    3.4378   -4.6333 H         1 UNK         0.0770 
    107 H107       23.4407    1.5953   -3.8992 H         1 UNK         0.0814 
    108 H108       23.2178    1.0776   -5.5707 H         1 UNK         0.0814 
    109 H109       22.6176    2.6420   -5.0433 H         1 UNK         0.0814 
    110 H110       25.1380    1.2952   -7.4794 H         1 UNK         0.2983 
    111 H111       24.3142    3.2554   -9.4186 H         1 UNK         0.0947 
    112 H112       25.1297    1.5489  -11.0379 H         1 UNK         0.0806 
    113 H113       24.1786    0.7783   -9.7774 H         1 UNK         0.0806 
    114 H114       25.9381    0.6724   -9.7469 H         1 UNK         0.0806 
    115 H115       27.2651    2.8443   -7.7195 H         1 UNK         0.3000 
    116 H116       29.3205    3.6424   -7.7803 H         1 UNK         0.0850 
    117 H117       29.7869    5.8621   -8.7550 H         1 UNK         0.0810 
    118 H118       28.2322    5.8912   -7.9386 H         1 UNK         0.0810 
    119 H119       28.3065    5.8101   -9.6985 H         1 UNK         0.0810 
    120 H120       28.9577    1.4340   -9.1869 H         1 UNK         0.3040 
    121 H121       30.1138    1.6748  -11.9072 H         1 UNK         0.0766 
    122 H122       28.0353    0.3353  -11.5495 H         1 UNK         0.0812 
    123 H123       28.8950   -0.7127  -10.4244 H         1 UNK         0.0812 
    124 H124       29.3526   -0.6736  -12.1201 H         1 UNK         0.0812 
    125 H125       31.4969    1.6103   -8.9794 H         1 UNK         0.3205 
    126 H126       33.4383    1.0084   -8.0539 H         1 UNK         0.0754 
    127 H127       35.4314    1.0688   -9.5176 H         1 UNK         0.0769 
    128 H128       34.2946    2.3115  -10.0116 H         1 UNK         0.0769 
    129 H129       34.4366    0.8236  -10.9463 H         1 UNK         0.0769 
    130 H130       31.6703   -1.0725   -8.1568 H         1 UNK         0.2981 
    131 H131       31.4052   -3.2025   -7.7537 H         1 UNK         0.0541 
    132 H132       31.9899   -3.7727  -11.5536 H         1 UNK         0.3459 
    133 H133       32.0679   -2.2172  -10.7661 H         1 UNK         0.3459 
    134 H134       33.1684   -4.7162   -7.0137 H         1 UNK         0.0612 
    135 H135       34.4077   -3.7216   -7.7278 H         1 UNK         0.0612 
    136 H136       32.2831   -4.3689   -4.4670 H         1 UNK         0.0624 
    137 H137       31.2706   -3.2971   -5.4105 H         1 UNK         0.0624 
@<TRIPOS>BOND
     1    1    2 1    
     2    1   72 1    
     3    1   73 1    
     4    1   74 1    
     5    2    3 2    
     6    2    4 am   BACKBONE|DICT|INTERRES
     7    4    5 1    
     8    4   75 1    
     9    5    6 1    
    10    5   35 1    
    11    5   76 1    
    12    6    7 1    
    13    6   77 1    
    14    6   78 1    
    15    7    8 1    
    16    8    9 1    
    17    8   79 1    
    18    8   80 1    
    19    9   10 ar   
    20    9   14 ar   
    21   10   11 ar   
    22   10   81 1    
    23   11   12 ar   
    24   11   71 1    
    25   12   13 ar   
    26   12   82 1    
    27   13   14 ar   
    28   13   15 1    
    29   14   83 1    
    30   15   16 1    
    31   15   84 1    
    32   15   85 1    
    33   16   17 1    
    34   17   18 1    
    35   17   86 1    
    36   17   87 1    
    37   18   19 1    
    38   18   37 1    
    39   18   88 1    
    40   19   20 am   BACKBONE|DICT|INTERRES
    41   19   89 1    
    42   20   21 2    
    43   20   22 1    
    44   22   23 1    
    45   22   24 1    
    46   22   90 1    
    47   23   91 1    
    48   23   92 1    
    49   23   93 1    
    50   24   25 am   BACKBONE|DICT|INTERRES
    51   24   94 1    
    52   25   26 2    
    53   25   27 1    
    54   27   28 1    
    55   27   29 1    
    56   27   95 1    
    57   28   96 1    
    58   28   97 1    
    59   28   98 1    
    60   29   30 am   BACKBONE|DICT|INTERRES
    61   29   99 1    
    62   30   31 2    
    63   30   32 1    
    64   32   33 1    
    65   32   34 1    
    66   32  100 1    
    67   33  101 1    
    68   33  102 1    
    69   33  103 1    
    70   34   35 am   BACKBONE|DICT|INTERRES
    71   34  104 1    
    72   35   36 2    
    73   37   38 2    
    74   37   39 am   BACKBONE|DICT|INTERRES
    75   39   40 1    
    76   39  105 1    
    77   40   41 1    
    78   40   42 1    
    79   40  106 1    
    80   41  107 1    
    81   41  108 1    
    82   41  109 1    
    83   42   43 2    
    84   42   44 am   BACKBONE|DICT|INTERRES
    85   44   45 1    
    86   44  110 1    
    87   45   46 1    
    88   45   47 1    
    89   45  111 1    
    90   46  112 1    
    91   46  113 1    
    92   46  114 1    
    93   47   48 2    
    94   47   49 am   BACKBONE|DICT|INTERRES
    95   49   50 1    
    96   49  115 1    
    97   50   51 1    
    98   50   52 1    
    99   50  116 1    
   100   51  117 1    
   101   51  118 1    
   102   51  119 1    
   103   52   53 2    
   104   52   54 am   BACKBONE|DICT|INTERRES
   105   54   55 1    
   106   54  120 1    
   107   55   56 1    
   108   55   57 1    
   109   55  121 1    
   110   56  122 1    
   111   56  123 1    
   112   56  124 1    
   113   57   58 2    
   114   57   59 am   BACKBONE|DICT|INTERRES
   115   59   60 1    
   116   59  125 1    
   117   60   61 1    
   118   60   62 1    
   119   60  126 1    
   120   61  127 1    
   121   61  128 1    
   122   61  129 1    
   123   62   63 2    
   124   62   64 am   BACKBONE|DICT|INTERRES
   125   64   65 1    
   126   64  130 1    
   127   65   66 1    
   128   65   69 1    
   129   65  131 1    
   130   66   67 am   BACKBONE|DICT|INTERRES
   131   66   68 2    
   132   67  132 1    
   133   67  133 1    
   134   69   70 1    
   135   69  134 1    
   136   69  135 1    
   137   70   71 1    
   138   71  136 1    
   139   71  137 1    
@<TRIPOS>SUBSTRUCTURE
     1 UNK         1 GROUP             0       ****    0 ROOT    
