@<TRIPOS>MOLECULE
3R137
137   139    1
SMALL
USER_CHARGES


@<TRIPOS>ATOM
      1 CA         26.6588   -6.1627    3.8633 C.3       0 UNK        -0.2020 
      2 C          26.7934   -5.2400    2.6608 C.2       0 UNK         0.4855 
      3 O          26.6928   -4.0216    2.8104 O.2       0 UNK        -0.5197 
      4 N          27.0284   -5.8094    1.4718 N.am      1 UNK        -0.4892 
      5 CA         27.1106   -5.0815    0.2010 C.3       1 UNK         0.0835 
      6 C6         27.9198   -5.8896   -0.8481 C.3       12 UNK        -0.0855 
      7 S7         28.6674   -4.8312   -2.1330 S.3       12 UNK        -0.2931 
      8 C8         30.1934   -4.2990   -1.2927 C.3       12 UNK         0.0378 
      9 C9         30.9095   -3.2040   -2.0703 C.ar      12 UNK        -0.0802 
     10 C10        32.1858   -3.4235   -2.5984 C.ar      12 UNK        -0.0944 
     11 C11        32.8577   -2.4053   -3.2841 C.ar      12 UNK        -0.0787 
     12 C12        32.2313   -1.1664   -3.4563 C.ar      12 UNK        -0.0862 
     13 C13        30.9483   -0.9394   -2.9494 C.ar      12 UNK        -0.0733 
     14 C14        30.3018   -1.9565   -2.2407 C.ar      12 UNK        -0.0832 
     15 C15        30.2658    0.4065   -3.1656 C.3       12 UNK         0.0240 
     16 S16        28.6230    0.2423   -3.9383 S.3       12 UNK        -0.2522 
     17 C17        29.0321   -0.6563   -5.4773 C.3       12 UNK        -0.0967 
     18 CA         28.0741   -0.3581   -6.6571 C.3       5 UNK         0.0660 
     19 N          26.6806   -0.6867   -6.3442 N.am      5 UNK        -0.4015 
     20 C          25.6627   -0.6190   -7.2152 C.2       4 UNK         0.4946 
     21 O          25.8063   -0.3497   -8.4076 O.2       4 UNK        -0.5353 
     22 CA         24.2371   -0.8353   -6.6774 C.3       4 UNK         0.0277 
     23 CB         23.7519   -2.2537   -7.0158 C.3       4 UNK        -0.1981 
     24 N          24.0717   -0.6014   -5.2394 N.am      4 UNK        -0.4209 
     25 C          24.3666    0.5253   -4.5724 C.2       3 UNK         0.4942 
     26 O          24.8492    1.5265   -5.1045 O.2       3 UNK        -0.5208 
     27 CA         24.0956    0.5332   -3.0550 C.3       3 UNK         0.0250 
     28 CB         22.8728    1.4085   -2.7353 C.3       3 UNK        -0.1990 
     29 N          23.8976   -0.8030   -2.4741 N.am      3 UNK        -0.4232 
     30 C          24.8659   -1.7187   -2.3358 C.2       2 UNK         0.4993 
     31 O          26.0339   -1.5388   -2.6870 O.2       2 UNK        -0.5286 
     32 CA         24.4602   -3.0768   -1.7547 C.3       2 UNK         0.0209 
     33 CB         23.8616   -3.9815   -2.8498 C.3       2 UNK        -0.1931 
     34 N          25.6594   -3.6879   -1.1918 N.am      2 UNK        -0.4546 
     35 C          25.7045   -4.6858   -0.3058 C.2       1 UNK         0.5154 
     36 O          24.7024   -5.2809    0.1022 O.2       1 UNK        -0.5181 
     37 C          28.2518    1.0829   -7.1791 C.2       5 UNK         0.5014 
     38 O          29.0614    1.2923   -8.0825 O.2       5 UNK        -0.5248 
     39 N          27.4771    2.0355   -6.6374 N.am      6 UNK        -0.4434 
     40 CA         27.4857    3.4372   -7.0559 C.3       6 UNK         0.0363 
     41 CB         26.8170    4.2997   -5.9742 C.3       6 UNK        -0.1936 
     42 C          26.8010    3.6446   -8.4157 C.2       6 UNK         0.5081 
     43 O          27.2452    4.4915   -9.1900 O.2       6 UNK        -0.5248 
     44 N          25.7492    2.8603   -8.6910 N.am      7 UNK        -0.4718 
     45 CA         25.0264    2.8632   -9.9652 C.3       7 UNK         0.0273 
     46 CB         23.6674    2.1655   -9.7915 C.3       7 UNK        -0.1935 
     47 C          25.8429    2.2054  -11.0890 C.2       7 UNK         0.5018 
     48 O          25.8809    2.7326  -12.2012 O.2       7 UNK        -0.5186 
     49 N          26.4967    1.0799  -10.7704 N.am      8 UNK        -0.4240 
     50 CA         27.3849    0.3438  -11.6724 C.3       8 UNK         0.0235 
     51 CB         27.6022   -1.0694  -11.1056 C.3       8 UNK        -0.2000 
     52 C          28.7433    1.0314  -11.9018 C.2       8 UNK         0.4941 
     53 O          29.4089    0.7090  -12.8867 O.2       8 UNK        -0.5273 
     54 N          29.1401    1.9253  -10.9817 N.am      9 UNK        -0.4262 
     55 CA         30.4627    2.5524  -10.8552 C.3       9 UNK         0.0264 
     56 CB         30.7648    3.4797  -12.0516 C.3       9 UNK        -0.1955 
     57 C          31.5620    1.5016  -10.5975 C.2       9 UNK         0.5031 
     58 O          32.6274    1.5423  -11.2177 O.2       9 UNK        -0.5390 
     59 N          31.2584    0.5567   -9.6994 N.am      10 UNK        -0.4204 
     60 CA         32.1274   -0.5546   -9.3217 C.3       10 UNK         0.0237 
     61 CB         31.2636   -1.6959   -8.7605 C.3       10 UNK        -0.1985 
     62 C          33.1743   -0.1143   -8.2893 C.2       10 UNK         0.4970 
     63 O          32.9244    0.8129   -7.5152 O.2       10 UNK        -0.4914 
     64 N          34.3116   -0.8204   -8.2858 N.am      11 UNK        -0.4285 
     65 CA         35.4494   -0.6352   -7.3659 C.3       11 UNK         0.1007 
     66 C          36.2297    0.7041   -7.5481 C.2       11 UNK         0.5703 
     67 N          36.0402    1.4406   -8.6370 N.am      11 UNK        -0.7361 
     68 O          37.0507    1.0674   -6.7087 O.2       11 UNK        -0.4986 
     69 C69        35.0827   -0.9170   -5.8789 C.3       12 UNK        -0.0947 
     70 S70        34.3713   -2.5792   -5.6201 S.3       12 UNK        -0.2240 
     71 C71        34.2722   -2.6386   -3.8021 C.3       12 UNK         0.0194 
     72 H72        25.6736   -6.0485    4.3146 H         1 UNK         0.0906 
     73 H73        27.4086   -5.9133    4.6137 H         1 UNK         0.0906 
     74 H74        26.7875   -7.2102    3.5911 H         1 UNK         0.0906 
     75 H75        27.0577   -6.8170    1.4032 H         1 UNK         0.3140 
     76 H76        27.6468   -4.1519    0.4052 H         1 UNK         0.1085 
     77 H77        28.7294   -6.4387   -0.3637 H         1 UNK         0.0836 
     78 H78        27.2976   -6.6483   -1.3273 H         1 UNK         0.0836 
     79 H79        29.9561   -3.9238   -0.2964 H         1 UNK         0.0731 
     80 H80        30.8425   -5.1647   -1.1510 H         1 UNK         0.0731 
     81 H81        32.6641   -4.3837   -2.4605 H         1 UNK         0.1312 
     82 H82        32.7428   -0.3771   -3.9875 H         1 UNK         0.1406 
     83 H83        29.3112   -1.7833   -1.8411 H         1 UNK         0.1631 
     84 H84        30.8797    1.0609   -3.7867 H         1 UNK         0.0717 
     85 H85        30.1549    0.9073   -2.2031 H         1 UNK         0.0717 
     86 H86        30.0618   -0.4289   -5.7611 H         1 UNK         0.0934 
     87 H87        29.0199   -1.7246   -5.2540 H         1 UNK         0.0934 
     88 H88        28.3594   -1.0166   -7.4799 H         1 UNK         0.0739 
     89 H89        26.4801   -0.8916   -5.3745 H         1 UNK         0.3093 
     90 H90        23.5931   -0.1207   -7.1938 H         1 UNK         0.0818 
     91 H91        23.8390   -2.4515   -8.0854 H         1 UNK         0.0819 
     92 H92        24.3346   -3.0149   -6.4953 H         1 UNK         0.0819 
     93 H93        22.7036   -2.3906   -6.7494 H         1 UNK         0.0819 
     94 H94        23.6797   -1.3631   -4.7068 H         1 UNK         0.3041 
     95 H95        24.9705    0.9817   -2.5789 H         1 UNK         0.0784 
     96 H96        23.0032    2.4191   -3.1256 H         1 UNK         0.0793 
     97 H97        21.9600    1.0050   -3.1754 H         1 UNK         0.0793 
     98 H98        22.7181    1.4976   -1.6598 H         1 UNK         0.0793 
     99 H99        22.9612   -1.0276   -2.1673 H         1 UNK         0.3024 
    100 H100       23.7310   -2.9197   -0.9565 H         1 UNK         0.1171 
    101 H101       22.9691   -3.5336   -3.2883 H         1 UNK         0.0786 
    102 H102       24.5727   -4.1569   -3.6584 H         1 UNK         0.0786 
    103 H103       23.5674   -4.9519   -2.4498 H         1 UNK         0.0786 
    104 H104       26.5191   -3.2501   -1.5056 H         1 UNK         0.2977 
    105 H105       26.8040    1.7757   -5.9236 H         1 UNK         0.3127 
    106 H106       28.5250    3.7590   -7.1534 H         1 UNK         0.0770 
    107 H107       25.7702    4.0290   -5.8301 H         1 UNK         0.0814 
    108 H108       26.8464    5.3559   -6.2452 H         1 UNK         0.0814 
    109 H109       27.3246    4.1965   -5.0150 H         1 UNK         0.0814 
    110 H110       25.4691    2.1737   -8.0050 H         1 UNK         0.2983 
    111 H111       24.8414    3.9010  -10.2522 H         1 UNK         0.0947 
    112 H112       23.0954    2.1945  -10.7199 H         1 UNK         0.0806 
    113 H113       23.0651    2.6543   -9.0255 H         1 UNK         0.0806 
    114 H114       23.7793    1.1173   -9.5126 H         1 UNK         0.0806 
    115 H115       26.3447    0.6733   -9.8484 H         1 UNK         0.3000 
    116 H116       26.8925    0.2548  -12.6432 H         1 UNK         0.0850 
    117 H117       28.2349   -1.6648  -11.7654 H         1 UNK         0.0810 
    118 H118       26.6574   -1.6017  -10.9940 H         1 UNK         0.0810 
    119 H119       28.0853   -1.0395  -10.1280 H         1 UNK         0.0810 
    120 H120       28.5263    2.0688  -10.1901 H         1 UNK         0.3040 
    121 H121       30.4192    3.1740   -9.9594 H         1 UNK         0.0766 
    122 H122       30.8842    2.9216  -12.9806 H         1 UNK         0.0812 
    123 H123       31.6886    4.0357  -11.8879 H         1 UNK         0.0812 
    124 H124       29.9682    4.2092  -12.1975 H         1 UNK         0.0812 
    125 H125       30.4092    0.6860   -9.1511 H         1 UNK         0.3205 
    126 H126       32.6405   -0.9147  -10.2163 H         1 UNK         0.0754 
    127 H127       31.8731   -2.5696   -8.5255 H         1 UNK         0.0769 
    128 H128       30.5062   -2.0123   -9.4780 H         1 UNK         0.0769 
    129 H129       30.7564   -1.4007   -7.8430 H         1 UNK         0.0769 
    130 H130       34.4237   -1.5621   -8.9615 H         1 UNK         0.2981 
    131 H131       36.1707   -1.3984   -7.6594 H         1 UNK         0.0541 
    132 H132       36.5599    2.2967   -8.7493 H         1 UNK         0.3459 
    133 H133       35.3731    1.1584   -9.3373 H         1 UNK         0.3459 
    134 H134       34.3877   -0.1646   -5.5075 H         1 UNK         0.0612 
    135 H135       35.9739   -0.8438   -5.2533 H         1 UNK         0.0612 
    136 H136       34.6393   -3.6133   -3.4774 H         1 UNK         0.0624 
    137 H137       34.9449   -1.9029   -3.3596 H         1 UNK         0.0624 
@<TRIPOS>BOND
     1    1    2 1    
     2    1   72 1    
     3    1   73 1    
     4    1   74 1    
     5    2    3 2    
     6    2    4 am   BACKBONE|DICT|INTERRES
     7    4    5 1    
     8    4   75 1    
     9    5    6 1    
    10    5   35 1    
    11    5   76 1    
    12    6    7 1    
    13    6   77 1    
    14    6   78 1    
    15    7    8 1    
    16    8    9 1    
    17    8   79 1    
    18    8   80 1    
    19    9   10 ar   
    20    9   14 ar   
    21   10   11 ar   
    22   10   81 1    
    23   11   12 ar   
    24   11   71 1    
    25   12   13 ar   
    26   12   82 1    
    27   13   14 ar   
    28   13   15 1    
    29   14   83 1    
    30   15   16 1    
    31   15   84 1    
    32   15   85 1    
    33   16   17 1    
    34   17   18 1    
    35   17   86 1    
    36   17   87 1    
    37   18   19 1    
    38   18   37 1    
    39   18   88 1    
    40   19   20 am   BACKBONE|DICT|INTERRES
    41   19   89 1    
    42   20   21 2    
    43   20   22 1    
    44   22   23 1    
    45   22   24 1    
    46   22   90 1    
    47   23   91 1    
    48   23   92 1    
    49   23   93 1    
    50   24   25 am   BACKBONE|DICT|INTERRES
    51   24   94 1    
    52   25   26 2    
    53   25   27 1    
    54   27   28 1    
    55   27   29 1    
    56   27   95 1    
    57   28   96 1    
    58   28   97 1    
    59   28   98 1    
    60   29   30 am   BACKBONE|DICT|INTERRES
    61   29   99 1    
    62   30   31 2    
    63   30   32 1    
    64   32   33 1    
    65   32   34 1    
    66   32  100 1    
    67   33  101 1    
    68   33  102 1    
    69   33  103 1    
    70   34   35 am   BACKBONE|DICT|INTERRES
    71   34  104 1    
    72   35   36 2    
    73   37   38 2    
    74   37   39 am   BACKBONE|DICT|INTERRES
    75   39   40 1    
    76   39  105 1    
    77   40   41 1    
    78   40   42 1    
    79   40  106 1    
    80   41  107 1    
    81   41  108 1    
    82   41  109 1    
    83   42   43 2    
    84   42   44 am   BACKBONE|DICT|INTERRES
    85   44   45 1    
    86   44  110 1    
    87   45   46 1    
    88   45   47 1    
    89   45  111 1    
    90   46  112 1    
    91   46  113 1    
    92   46  114 1    
    93   47   48 2    
    94   47   49 am   BACKBONE|DICT|INTERRES
    95   49   50 1    
    96   49  115 1    
    97   50   51 1    
    98   50   52 1    
    99   50  116 1    
   100   51  117 1    
   101   51  118 1    
   102   51  119 1    
   103   52   53 2    
   104   52   54 am   BACKBONE|DICT|INTERRES
   105   54   55 1    
   106   54  120 1    
   107   55   56 1    
   108   55   57 1    
   109   55  121 1    
   110   56  122 1    
   111   56  123 1    
   112   56  124 1    
   113   57   58 2    
   114   57   59 am   BACKBONE|DICT|INTERRES
   115   59   60 1    
   116   59  125 1    
   117   60   61 1    
   118   60   62 1    
   119   60  126 1    
   120   61  127 1    
   121   61  128 1    
   122   61  129 1    
   123   62   63 2    
   124   62   64 am   BACKBONE|DICT|INTERRES
   125   64   65 1    
   126   64  130 1    
   127   65   66 1    
   128   65   69 1    
   129   65  131 1    
   130   66   67 am   BACKBONE|DICT|INTERRES
   131   66   68 2    
   132   67  132 1    
   133   67  133 1    
   134   69   70 1    
   135   69  134 1    
   136   69  135 1    
   137   70   71 1    
   138   71  136 1    
   139   71  137 1    
@<TRIPOS>SUBSTRUCTURE
     1 UNK         1 GROUP             0       ****    0 ROOT    
