@<TRIPOS>MOLECULE
3R137
137   139    1
SMALL
USER_CHARGES


@<TRIPOS>ATOM
      1 CA         23.4726   -5.2061    0.6840 C.3       0 UNK        -0.2020 
      2 C          24.7163   -4.3951    1.0151 C.2       0 UNK         0.4855 
      3 O          24.7462   -3.7066    2.0348 O.2       0 UNK        -0.5197 
      4 N          25.7413   -4.4613    0.1557 N.am      1 UNK        -0.4892 
      5 CA         27.0231   -3.7581    0.3127 C.3       1 UNK         0.0835 
      6 C6         28.1732   -4.5212   -0.3894 C.3       12 UNK        -0.0855 
      7 S7         27.9481   -4.7302   -2.1931 S.3       12 UNK        -0.2931 
      8 C8         29.6832   -4.8319   -2.7393 C.3       12 UNK         0.0378 
      9 C9         30.1689   -3.5439   -3.3928 C.ar      12 UNK        -0.0802 
     10 C10        30.5593   -3.5570   -4.7334 C.ar      12 UNK        -0.0944 
     11 C11        31.0423   -2.4001   -5.3474 C.ar      12 UNK        -0.0787 
     12 C12        31.1407   -1.2174   -4.6090 C.ar      12 UNK        -0.0862 
     13 C13        30.7481   -1.1833   -3.2650 C.ar      12 UNK        -0.0733 
     14 C14        30.2659   -2.3528   -2.6647 C.ar      12 UNK        -0.0832 
     15 C15        30.8862    0.0896   -2.4308 C.3       12 UNK         0.0240 
     16 S16        30.3594    1.6154   -3.2862 S.3       12 UNK        -0.2522 
     17 C17        28.5811    1.3111   -3.5373 C.3       12 UNK        -0.0967 
     18 CA         28.2315    1.1389   -5.0440 C.3       5 UNK         0.0660 
     19 N          27.5892   -0.1469   -5.3108 N.am      5 UNK        -0.4015 
     20 C          27.4234   -0.6933   -6.5223 C.2       4 UNK         0.4946 
     21 O          27.8625   -0.2050   -7.5653 O.2       4 UNK        -0.5353 
     22 CA         26.5916   -1.9882   -6.5786 C.3       4 UNK         0.0277 
     23 CB         27.4944   -3.2269   -6.5091 C.3       4 UNK        -0.1981 
     24 N          25.5818   -2.0676   -5.5171 N.am      4 UNK        -0.4209 
     25 C          24.4959   -1.2850   -5.4579 C.2       3 UNK         0.4942 
     26 O          24.2222   -0.4311   -6.3000 O.2       3 UNK        -0.5208 
     27 CA         23.5911   -1.4503   -4.2268 C.3       3 UNK         0.0250 
     28 CB         22.7630   -2.7422   -4.3245 C.3       3 UNK        -0.1990 
     29 N          24.3089   -1.4172   -2.9459 N.am      3 UNK        -0.4232 
     30 C          25.0498   -0.3864   -2.5077 C.2       2 UNK         0.4993 
     31 O          25.3128    0.5993   -3.1928 O.2       2 UNK        -0.5286 
     32 CA         25.5973   -0.4418   -1.0764 C.3       2 UNK         0.0209 
     33 CB         24.6363    0.2715   -0.1110 C.3       2 UNK        -0.1931 
     34 N          25.8216   -1.8123   -0.6145 N.am      2 UNK        -0.4546 
     35 C          26.9738   -2.2714   -0.1095 C.2       1 UNK         0.5154 
     36 O          27.9809   -1.5747    0.0290 O.2       1 UNK        -0.5181 
     37 C          27.3688    2.2988   -5.5823 C.2       5 UNK         0.5014 
     38 O          27.8780    3.1469   -6.3146 O.2       5 UNK        -0.5248 
     39 N          26.0687    2.2870   -5.2515 N.am      6 UNK        -0.4434 
     40 CA         25.0584    3.2373   -5.7267 C.3       6 UNK         0.0363 
     41 CB         23.7375    2.9937   -4.9798 C.3       6 UNK        -0.1936 
     42 C          24.8397    3.1790   -7.2484 C.2       6 UNK         0.5081 
     43 O          24.6336    4.2215   -7.8698 O.2       6 UNK        -0.5248 
     44 N          24.9307    1.9735   -7.8279 N.am      7 UNK        -0.4718 
     45 CA         24.9194    1.7326   -9.2750 C.3       7 UNK         0.0273 
     46 CB         24.6665    0.2384   -9.5331 C.3       7 UNK        -0.1935 
     47 C          26.2059    2.1889   -9.9938 C.2       7 UNK         0.5018 
     48 O          26.2153    2.2162  -11.2253 O.2       7 UNK        -0.5186 
     49 N          27.2529    2.5323   -9.2277 N.am      8 UNK        -0.4240 
     50 CA         28.5727    2.9948   -9.6627 C.3       8 UNK         0.0235 
     51 CB         28.4729    4.3637  -10.3703 C.3       8 UNK        -0.2000 
     52 C          29.3395    1.9393  -10.4787 C.2       8 UNK         0.4941 
     53 O          29.9386    2.2716  -11.5047 O.2       8 UNK        -0.5273 
     54 N          29.3216    0.6844  -10.0055 N.am      9 UNK        -0.4262 
     55 CA         30.1418   -0.4014  -10.5478 C.3       9 UNK         0.0264 
     56 CB         29.6557   -1.7394   -9.9732 C.3       9 UNK        -0.1955 
     57 C          31.6371   -0.1692  -10.2569 C.2       9 UNK         0.5031 
     58 O          31.9823    0.4112   -9.2232 O.2       9 UNK        -0.5390 
     59 N          32.4982   -0.6191  -11.1779 N.am      10 UNK        -0.4204 
     60 CA         33.9384   -0.3384  -11.2189 C.3       10 UNK         0.0237 
     61 CB         34.4390   -0.5540  -12.6607 C.3       10 UNK        -0.1985 
     62 C          34.7745   -1.1168  -10.1795 C.2       10 UNK         0.4970 
     63 O          35.7495   -1.7759  -10.5465 O.2       10 UNK        -0.4914 
     64 N          34.3964   -1.0125   -8.9017 N.am      11 UNK        -0.4285 
     65 CA         35.1470   -1.5535   -7.7550 C.3       11 UNK         0.1007 
     66 C          36.3077   -0.6359   -7.2709 C.2       11 UNK         0.5703 
     67 N          36.4466    0.5880   -7.7683 N.am      11 UNK        -0.7361 
     68 O          37.1093   -1.0489   -6.4360 O.2       11 UNK        -0.4986 
     69 C69        34.2114   -1.9409   -6.5814 C.3       12 UNK        -0.0947 
     70 S70        33.0463   -3.2599   -7.0540 S.3       12 UNK        -0.2240 
     71 C71        31.4427   -2.4419   -6.8129 C.3       12 UNK         0.0194 
     72 H72        22.6080   -4.5490    0.5938 H         1 UNK         0.0906 
     73 H73        23.5801   -5.7562   -0.2507 H         1 UNK         0.0906 
     74 H74        23.2722   -5.9248    1.4782 H         1 UNK         0.0906 
     75 H75        25.6731   -5.0438   -0.6685 H         1 UNK         0.3140 
     76 H76        27.2627   -3.7433    1.3787 H         1 UNK         0.1085 
     77 H77        28.2695   -5.5150    0.0509 H         1 UNK         0.0836 
     78 H78        29.1247   -4.0262   -0.1879 H         1 UNK         0.0836 
     79 H79        29.7631   -5.6654   -3.4389 H         1 UNK         0.0731 
     80 H80        30.3377   -5.0858   -1.9045 H         1 UNK         0.0731 
     81 H81        30.4928   -4.4721   -5.3063 H         1 UNK         0.1312 
     82 H82        31.5235   -0.3230   -5.0808 H         1 UNK         0.1406 
     83 H83        29.9734   -2.3392   -1.6240 H         1 UNK         0.1631 
     84 H84        31.9324    0.1988   -2.1429 H         1 UNK         0.0717 
     85 H85        30.3201    0.0034   -1.5015 H         1 UNK         0.0717 
     86 H86        28.2939    0.4299   -2.9614 H         1 UNK         0.0934 
     87 H87        28.0329    2.1339   -3.0730 H         1 UNK         0.0934 
     88 H88        29.1531    1.1429   -5.6311 H         1 UNK         0.0739 
     89 H89        27.1593   -0.6055   -4.5228 H         1 UNK         0.3093 
     90 H90        26.0756   -2.0023   -7.5403 H         1 UNK         0.0818 
     91 H91        27.9690   -3.3191   -5.5329 H         1 UNK         0.0819 
     92 H92        26.9278   -4.1401   -6.6913 H         1 UNK         0.0819 
     93 H93        28.2827   -3.1817   -7.2607 H         1 UNK         0.0819 
     94 H94        25.7318   -2.7475   -4.7854 H         1 UNK         0.3041 
     95 H95        22.8966   -0.6072   -4.2266 H         1 UNK         0.0784 
     96 H96        22.2170   -2.7849   -5.2683 H         1 UNK         0.0793 
     97 H97        23.3887   -3.6338   -4.2697 H         1 UNK         0.0793 
     98 H98        22.0244   -2.8012   -3.5248 H         1 UNK         0.0793 
     99 H99        24.1452   -2.1955   -2.3279 H         1 UNK         0.3024 
    100 H100       26.5384    0.1130   -1.0856 H         1 UNK         0.1171 
    101 H101       24.4520    1.2986   -0.4299 H         1 UNK         0.0786 
    102 H102       23.6706   -0.2321   -0.0535 H         1 UNK         0.0786 
    103 H103       25.0508    0.3156    0.8963 H         1 UNK         0.0786 
    104 H104       25.0462   -2.4561   -0.6494 H         1 UNK         0.2977 
    105 H105       25.7424    1.5760   -4.5954 H         1 UNK         0.3127 
    106 H106       25.4104    4.2417   -5.4825 H         1 UNK         0.0770 
    107 H107       23.3503    1.9908   -5.1641 H         1 UNK         0.0814 
    108 H108       22.9724    3.7039   -5.2959 H         1 UNK         0.0814 
    109 H109       23.8640    3.1090   -3.9032 H         1 UNK         0.0814 
    110 H110       25.0023    1.1543   -7.2307 H         1 UNK         0.2983 
    111 H111       24.0913    2.2995   -9.7058 H         1 UNK         0.0947 
    112 H112       24.5709    0.0363  -10.6007 H         1 UNK         0.0806 
    113 H113       23.7464   -0.0994   -9.0560 H         1 UNK         0.0806 
    114 H114       25.4859   -0.3749   -9.1591 H         1 UNK         0.0806 
    115 H115       27.1404    2.4625   -8.2231 H         1 UNK         0.3000 
    116 H116       29.1542    3.1427   -8.7514 H         1 UNK         0.0850 
    117 H117       27.9481    4.2916  -11.3233 H         1 UNK         0.0810 
    118 H118       27.9478    5.0914   -9.7515 H         1 UNK         0.0810 
    119 H119       29.4642    4.7695  -10.5760 H         1 UNK         0.0810 
    120 H120       28.8139    0.4854   -9.1463 H         1 UNK         0.3040 
    121 H121       30.0016   -0.4227  -11.6308 H         1 UNK         0.0766 
    122 H122       30.3022   -2.5647  -10.2744 H         1 UNK         0.0812 
    123 H123       28.6476   -1.9713  -10.3173 H         1 UNK         0.0812 
    124 H124       29.6312   -1.7151   -8.8862 H         1 UNK         0.0812 
    125 H125       32.1280   -1.1294  -11.9671 H         1 UNK         0.3205 
    126 H126       34.0752    0.7201  -10.9868 H         1 UNK         0.0754 
    127 H127       35.4930   -0.2883  -12.7552 H         1 UNK         0.0769 
    128 H128       33.8901    0.0667  -13.3693 H         1 UNK         0.0769 
    129 H129       34.3349   -1.5940  -12.9730 H         1 UNK         0.0769 
    130 H130       33.5676   -0.4603   -8.6965 H         1 UNK         0.2981 
    131 H131       35.6358   -2.4734   -8.0818 H         1 UNK         0.0541 
    132 H132       37.2076    1.1664   -7.4486 H         1 UNK         0.3459 
    133 H133       35.7955    0.9414   -8.4501 H         1 UNK         0.3459 
    134 H134       33.6687   -1.0655   -6.2218 H         1 UNK         0.0612 
    135 H135       34.7865   -2.3131   -5.7316 H         1 UNK         0.0612 
    136 H136       31.4611   -1.4409   -7.2458 H         1 UNK         0.0624 
    137 H137       30.6947   -3.0093   -7.3654 H         1 UNK         0.0624 
@<TRIPOS>BOND
     1    1    2 1    
     2    1   72 1    
     3    1   73 1    
     4    1   74 1    
     5    2    3 2    
     6    2    4 am   BACKBONE|DICT|INTERRES
     7    4    5 1    
     8    4   75 1    
     9    5    6 1    
    10    5   35 1    
    11    5   76 1    
    12    6    7 1    
    13    6   77 1    
    14    6   78 1    
    15    7    8 1    
    16    8    9 1    
    17    8   79 1    
    18    8   80 1    
    19    9   10 ar   
    20    9   14 ar   
    21   10   11 ar   
    22   10   81 1    
    23   11   12 ar   
    24   11   71 1    
    25   12   13 ar   
    26   12   82 1    
    27   13   14 ar   
    28   13   15 1    
    29   14   83 1    
    30   15   16 1    
    31   15   84 1    
    32   15   85 1    
    33   16   17 1    
    34   17   18 1    
    35   17   86 1    
    36   17   87 1    
    37   18   19 1    
    38   18   37 1    
    39   18   88 1    
    40   19   20 am   BACKBONE|DICT|INTERRES
    41   19   89 1    
    42   20   21 2    
    43   20   22 1    
    44   22   23 1    
    45   22   24 1    
    46   22   90 1    
    47   23   91 1    
    48   23   92 1    
    49   23   93 1    
    50   24   25 am   BACKBONE|DICT|INTERRES
    51   24   94 1    
    52   25   26 2    
    53   25   27 1    
    54   27   28 1    
    55   27   29 1    
    56   27   95 1    
    57   28   96 1    
    58   28   97 1    
    59   28   98 1    
    60   29   30 am   BACKBONE|DICT|INTERRES
    61   29   99 1    
    62   30   31 2    
    63   30   32 1    
    64   32   33 1    
    65   32   34 1    
    66   32  100 1    
    67   33  101 1    
    68   33  102 1    
    69   33  103 1    
    70   34   35 am   BACKBONE|DICT|INTERRES
    71   34  104 1    
    72   35   36 2    
    73   37   38 2    
    74   37   39 am   BACKBONE|DICT|INTERRES
    75   39   40 1    
    76   39  105 1    
    77   40   41 1    
    78   40   42 1    
    79   40  106 1    
    80   41  107 1    
    81   41  108 1    
    82   41  109 1    
    83   42   43 2    
    84   42   44 am   BACKBONE|DICT|INTERRES
    85   44   45 1    
    86   44  110 1    
    87   45   46 1    
    88   45   47 1    
    89   45  111 1    
    90   46  112 1    
    91   46  113 1    
    92   46  114 1    
    93   47   48 2    
    94   47   49 am   BACKBONE|DICT|INTERRES
    95   49   50 1    
    96   49  115 1    
    97   50   51 1    
    98   50   52 1    
    99   50  116 1    
   100   51  117 1    
   101   51  118 1    
   102   51  119 1    
   103   52   53 2    
   104   52   54 am   BACKBONE|DICT|INTERRES
   105   54   55 1    
   106   54  120 1    
   107   55   56 1    
   108   55   57 1    
   109   55  121 1    
   110   56  122 1    
   111   56  123 1    
   112   56  124 1    
   113   57   58 2    
   114   57   59 am   BACKBONE|DICT|INTERRES
   115   59   60 1    
   116   59  125 1    
   117   60   61 1    
   118   60   62 1    
   119   60  126 1    
   120   61  127 1    
   121   61  128 1    
   122   61  129 1    
   123   62   63 2    
   124   62   64 am   BACKBONE|DICT|INTERRES
   125   64   65 1    
   126   64  130 1    
   127   65   66 1    
   128   65   69 1    
   129   65  131 1    
   130   66   67 am   BACKBONE|DICT|INTERRES
   131   66   68 2    
   132   67  132 1    
   133   67  133 1    
   134   69   70 1    
   135   69  134 1    
   136   69  135 1    
   137   70   71 1    
   138   71  136 1    
   139   71  137 1    
@<TRIPOS>SUBSTRUCTURE
     1 UNK         1 GROUP             0       ****    0 ROOT    
