@<TRIPOS>MOLECULE
3R137
137   139    1
SMALL
USER_CHARGES


@<TRIPOS>ATOM
      1 CA         25.3744   -6.9488   -2.8209 C.3       0 UNK        -0.2020 
      2 C          25.5186   -5.6799   -1.9950 C.2       0 UNK         0.4855 
      3 O          24.5206   -5.0126   -1.7216 O.2       0 UNK        -0.5197 
      4 N          26.7562   -5.3371   -1.6107 N.am      1 UNK        -0.4892 
      5 CA         27.1342   -4.1409   -0.8468 C.3       1 UNK         0.0835 
      6 C6         28.6609   -4.1360   -0.5808 C.3       12 UNK        -0.0855 
      7 S7         29.1544   -2.9372    0.6995 S.3       12 UNK        -0.2931 
      8 C8         30.8755   -2.5833    0.2078 C.3       12 UNK         0.0378 
      9 C9         30.9839   -1.6828   -1.0196 C.ar      12 UNK        -0.0802 
     10 C10        31.7441   -2.0807   -2.1264 C.ar      12 UNK        -0.0944 
     11 C11        31.9127   -1.2208   -3.2177 C.ar      12 UNK        -0.0787 
     12 C12        31.3106    0.0389   -3.1988 C.ar      12 UNK        -0.0862 
     13 C13        30.5159    0.4337   -2.1202 C.ar      12 UNK        -0.0733 
     14 C14        30.3690   -0.4261   -1.0274 C.ar      12 UNK        -0.0832 
     15 C15        29.8042    1.7818   -2.1348 C.3       12 UNK         0.0240 
     16 S16        28.8927    2.0994   -3.6855 S.3       12 UNK        -0.2522 
     17 C17        27.8611    0.6021   -3.8511 C.3       12 UNK        -0.0967 
     18 CA         28.0887   -0.1303   -5.2028 C.3       5 UNK         0.0660 
     19 N          27.6941   -1.5369   -5.1413 N.am      5 UNK        -0.4015 
     20 C          27.7934   -2.4510   -6.1197 C.2       4 UNK         0.4946 
     21 O          28.3236   -2.2547   -7.2120 O.2       4 UNK        -0.5353 
     22 CA         27.1561   -3.8217   -5.8390 C.3       4 UNK         0.0277 
     23 CB         28.1239   -4.7380   -5.0708 C.3       4 UNK        -0.1981 
     24 N          25.9010   -3.6756   -5.0975 N.am      4 UNK        -0.4209 
     25 C          24.7336   -3.3245   -5.6585 C.2       3 UNK         0.4942 
     26 O          24.5619   -3.2232   -6.8733 O.2       3 UNK        -0.5208 
     27 CA         23.5571   -3.0191   -4.7140 C.3       3 UNK         0.0250 
     28 CB         22.6500   -4.2501   -4.5572 C.3       3 UNK        -0.1990 
     29 N          23.9896   -2.5534   -3.3935 N.am      3 UNK        -0.4232 
     30 C          24.4789   -1.3267   -3.1548 C.2       2 UNK         0.4993 
     31 O          24.5810   -0.4513   -4.0164 O.2       2 UNK        -0.5286 
     32 CA         24.9929   -1.0429   -1.7293 C.3       2 UNK         0.0209 
     33 CB         23.8540   -0.5166   -0.8423 C.3       2 UNK        -0.1931 
     34 N          25.6222   -2.2020   -1.0832 N.am      2 UNK        -0.4546 
     35 C          26.6780   -2.8627   -1.5785 C.2       1 UNK         0.5154 
     36 O          27.2404   -2.5420   -2.6239 O.2       1 UNK        -0.5181 
     37 C          27.3850    0.5944   -6.3619 C.2       5 UNK         0.5014 
     38 O          28.0598    1.0174   -7.2994 O.2       5 UNK        -0.5248 
     39 N          26.0495    0.7189   -6.2810 N.am      6 UNK        -0.4434 
     40 CA         25.1804    1.4243   -7.2300 C.3       6 UNK         0.0363 
     41 CB         25.0289    0.5993   -8.5280 C.3       6 UNK        -0.1936 
     42 C          25.6456    2.8794   -7.4595 C.2       6 UNK         0.5081 
     43 O          25.4459    3.7205   -6.5831 O.2       6 UNK        -0.5248 
     44 N          26.2849    3.1401   -8.6077 N.am      7 UNK        -0.4718 
     45 CA         26.8901    4.4233   -8.9823 C.3       7 UNK         0.0273 
     46 CB         26.7881    4.5768  -10.5111 C.3       7 UNK        -0.1935 
     47 C          28.3528    4.5763   -8.5079 C.2       7 UNK         0.5018 
     48 O          29.0380    5.4900   -8.9683 O.2       7 UNK        -0.5186 
     49 N          28.8338    3.6592   -7.6563 N.am      8 UNK        -0.4240 
     50 CA         30.1900    3.4925   -7.1103 C.3       8 UNK         0.0235 
     51 CB         30.7128    4.7655   -6.4179 C.3       8 UNK        -0.2000 
     52 C          31.1956    2.9375   -8.1309 C.2       8 UNK         0.4941 
     53 O          32.0027    2.0773   -7.7778 O.2       8 UNK        -0.5273 
     54 N          31.1033    3.3921   -9.3870 N.am      9 UNK        -0.4262 
     55 CA         31.8992    2.9198  -10.5234 C.3       9 UNK         0.0264 
     56 CB         31.6558    3.8495  -11.7231 C.3       9 UNK        -0.1955 
     57 C          31.6259    1.4549  -10.9170 C.2       9 UNK         0.5031 
     58 O          32.4801    0.8391  -11.5566 O.2       9 UNK        -0.5390 
     59 N          30.4614    0.9132  -10.5269 N.am      10 UNK        -0.4204 
     60 CA         30.0239   -0.4562  -10.8202 C.3       10 UNK         0.0237 
     61 CB         28.5550   -0.6248  -10.4033 C.3       10 UNK        -0.1985 
     62 C          30.9032   -1.5565  -10.1937 C.2       10 UNK         0.4970 
     63 O          30.8936   -2.6792  -10.7011 O.2       10 UNK        -0.4914 
     64 N          31.6707   -1.2217   -9.1467 N.am      11 UNK        -0.4285 
     65 CA         32.7237   -2.0839   -8.5865 C.3       11 UNK         0.1007 
     66 C          33.9712   -2.2460   -9.5078 C.2       11 UNK         0.5703 
     67 N          34.1465   -1.4522  -10.5597 N.am      11 UNK        -0.7361 
     68 O          34.7979   -3.1222   -9.2652 O.2       11 UNK        -0.4986 
     69 C69        33.1522   -1.6289   -7.1674 C.3       12 UNK        -0.0947 
     70 S70        31.8014   -1.7038   -5.9480 S.3       12 UNK        -0.2240 
     71 C71        32.7709   -1.6209   -4.4085 C.3       12 UNK         0.0194 
     72 H72        24.5938   -7.5828   -2.4014 H         1 UNK         0.0906 
     73 H73        25.0990   -6.7010   -3.8456 H         1 UNK         0.0906 
     74 H74        26.2988   -7.5253   -2.8476 H         1 UNK         0.0906 
     75 H75        27.5269   -5.9305   -1.8828 H         1 UNK         0.3140 
     76 H76        26.6171   -4.1975    0.1135 H         1 UNK         0.1085 
     77 H77        29.2173   -3.9485   -1.5019 H         1 UNK         0.0836 
     78 H78        28.9821   -5.1192   -0.2329 H         1 UNK         0.0836 
     79 H79        31.4015   -3.5263    0.0500 H         1 UNK         0.0731 
     80 H80        31.3791   -2.0907    1.0407 H         1 UNK         0.0731 
     81 H81        32.2253   -3.0492   -2.1287 H         1 UNK         0.1312 
     82 H82        31.4406    0.7038   -4.0421 H         1 UNK         0.1406 
     83 H83        29.7740   -0.1209   -0.1772 H         1 UNK         0.1631 
     84 H84        30.5407    2.5729   -1.9897 H         1 UNK         0.0717 
     85 H85        29.1015    1.8555   -1.3034 H         1 UNK         0.0717 
     86 H86        28.0841   -0.0723   -3.0247 H         1 UNK         0.0934 
     87 H87        26.8197    0.8899   -3.7072 H         1 UNK         0.0934 
     88 H88        29.1594   -0.1322   -5.4168 H         1 UNK         0.0739 
     89 H89        27.3469   -1.8558   -4.2386 H         1 UNK         0.3093 
     90 H90        26.9419   -4.2940   -6.8005 H         1 UNK         0.0818 
     91 H91        28.4178   -4.3156   -4.1102 H         1 UNK         0.0819 
     92 H92        27.6827   -5.7177   -4.8881 H         1 UNK         0.0819 
     93 H93        29.0386   -4.8963   -5.6437 H         1 UNK         0.0819 
     94 H94        25.9703   -3.6787   -4.0893 H         1 UNK         0.3041 
     95 H95        22.9667   -2.2253   -5.1774 H         1 UNK         0.0784 
     96 H96        22.2758   -4.5835   -5.5262 H         1 UNK         0.0793 
     97 H97        23.1775   -5.0904   -4.1066 H         1 UNK         0.0793 
     98 H98        21.7829   -4.0268   -3.9355 H         1 UNK         0.0793 
     99 H99        23.9814   -3.2357   -2.6409 H         1 UNK         0.3024 
    100 H100       25.7512   -0.2615   -1.8071 H         1 UNK         0.1171 
    101 H101       24.2212   -0.2165    0.1393 H         1 UNK         0.0786 
    102 H102       23.3830    0.3593   -1.2912 H         1 UNK         0.0786 
    103 H103       23.0755   -1.2666   -0.6961 H         1 UNK         0.0786 
    104 H104       25.1790   -2.5511   -0.2452 H         1 UNK         0.2977 
    105 H105       25.5772    0.3328   -5.4653 H         1 UNK         0.3127 
    106 H106       24.1967    1.4864   -6.7620 H         1 UNK         0.0770 
    107 H107       25.9848    0.4112   -9.0171 H         1 UNK         0.0814 
    108 H108       24.3798    1.1050   -9.2441 H         1 UNK         0.0814 
    109 H109       24.5784   -0.3712   -8.3178 H         1 UNK         0.0814 
    110 H110       26.4350    2.3700   -9.2438 H         1 UNK         0.2983 
    111 H111       26.3227    5.2349   -8.5215 H         1 UNK         0.0947 
    112 H112       27.1530    5.5524  -10.8354 H         1 UNK         0.0806 
    113 H113       25.7550    4.4952  -10.8498 H         1 UNK         0.0806 
    114 H114       27.3739    3.8195  -11.0336 H         1 UNK         0.0806 
    115 H115       28.2236    2.8728   -7.4442 H         1 UNK         0.3000 
    116 H116       30.0931    2.7255   -6.3409 H         1 UNK         0.0850 
    117 H117       31.6589    4.5674   -5.9127 H         1 UNK         0.0810 
    118 H118       30.0110    5.1205   -5.6631 H         1 UNK         0.0810 
    119 H119       30.8893    5.5770   -7.1240 H         1 UNK         0.0810 
    120 H120       30.4338    4.1347   -9.5621 H         1 UNK         0.3040 
    121 H121       32.9524    2.9877  -10.2431 H         1 UNK         0.0766 
    122 H122       31.9291    4.8788  -11.4898 H         1 UNK         0.0812 
    123 H123       30.6104    3.8417  -12.0345 H         1 UNK         0.0812 
    124 H124       32.2547    3.5441  -12.5824 H         1 UNK         0.0812 
    125 H125       29.8333    1.4812   -9.9778 H         1 UNK         0.3205 
    126 H126       30.0812   -0.5855  -11.9030 H         1 UNK         0.0754 
    127 H127       28.1820   -1.6117  -10.6802 H         1 UNK         0.0769 
    128 H128       27.9125    0.1118  -10.8856 H         1 UNK         0.0769 
    129 H129       28.4332   -0.5287   -9.3251 H         1 UNK         0.0769 
    130 H130       31.6177   -0.2836   -8.7754 H         1 UNK         0.2981 
    131 H131       32.3004   -3.0855   -8.4889 H         1 UNK         0.0541 
    132 H132       34.9598   -1.5837  -11.1392 H         1 UNK         0.3459 
    133 H133       33.4809   -0.7223  -10.7909 H         1 UNK         0.3459 
    134 H134       33.9650   -2.2567   -6.7966 H         1 UNK         0.0612 
    135 H135       33.5380   -0.6079   -7.1942 H         1 UNK         0.0612 
    136 H136       33.5703   -0.8872   -4.5226 H         1 UNK         0.0624 
    137 H137       33.2526   -2.5850   -4.2395 H         1 UNK         0.0624 
@<TRIPOS>BOND
     1    1    2 1    
     2    1   72 1    
     3    1   73 1    
     4    1   74 1    
     5    2    3 2    
     6    2    4 am   BACKBONE|DICT|INTERRES
     7    4    5 1    
     8    4   75 1    
     9    5    6 1    
    10    5   35 1    
    11    5   76 1    
    12    6    7 1    
    13    6   77 1    
    14    6   78 1    
    15    7    8 1    
    16    8    9 1    
    17    8   79 1    
    18    8   80 1    
    19    9   10 ar   
    20    9   14 ar   
    21   10   11 ar   
    22   10   81 1    
    23   11   12 ar   
    24   11   71 1    
    25   12   13 ar   
    26   12   82 1    
    27   13   14 ar   
    28   13   15 1    
    29   14   83 1    
    30   15   16 1    
    31   15   84 1    
    32   15   85 1    
    33   16   17 1    
    34   17   18 1    
    35   17   86 1    
    36   17   87 1    
    37   18   19 1    
    38   18   37 1    
    39   18   88 1    
    40   19   20 am   BACKBONE|DICT|INTERRES
    41   19   89 1    
    42   20   21 2    
    43   20   22 1    
    44   22   23 1    
    45   22   24 1    
    46   22   90 1    
    47   23   91 1    
    48   23   92 1    
    49   23   93 1    
    50   24   25 am   BACKBONE|DICT|INTERRES
    51   24   94 1    
    52   25   26 2    
    53   25   27 1    
    54   27   28 1    
    55   27   29 1    
    56   27   95 1    
    57   28   96 1    
    58   28   97 1    
    59   28   98 1    
    60   29   30 am   BACKBONE|DICT|INTERRES
    61   29   99 1    
    62   30   31 2    
    63   30   32 1    
    64   32   33 1    
    65   32   34 1    
    66   32  100 1    
    67   33  101 1    
    68   33  102 1    
    69   33  103 1    
    70   34   35 am   BACKBONE|DICT|INTERRES
    71   34  104 1    
    72   35   36 2    
    73   37   38 2    
    74   37   39 am   BACKBONE|DICT|INTERRES
    75   39   40 1    
    76   39  105 1    
    77   40   41 1    
    78   40   42 1    
    79   40  106 1    
    80   41  107 1    
    81   41  108 1    
    82   41  109 1    
    83   42   43 2    
    84   42   44 am   BACKBONE|DICT|INTERRES
    85   44   45 1    
    86   44  110 1    
    87   45   46 1    
    88   45   47 1    
    89   45  111 1    
    90   46  112 1    
    91   46  113 1    
    92   46  114 1    
    93   47   48 2    
    94   47   49 am   BACKBONE|DICT|INTERRES
    95   49   50 1    
    96   49  115 1    
    97   50   51 1    
    98   50   52 1    
    99   50  116 1    
   100   51  117 1    
   101   51  118 1    
   102   51  119 1    
   103   52   53 2    
   104   52   54 am   BACKBONE|DICT|INTERRES
   105   54   55 1    
   106   54  120 1    
   107   55   56 1    
   108   55   57 1    
   109   55  121 1    
   110   56  122 1    
   111   56  123 1    
   112   56  124 1    
   113   57   58 2    
   114   57   59 am   BACKBONE|DICT|INTERRES
   115   59   60 1    
   116   59  125 1    
   117   60   61 1    
   118   60   62 1    
   119   60  126 1    
   120   61  127 1    
   121   61  128 1    
   122   61  129 1    
   123   62   63 2    
   124   62   64 am   BACKBONE|DICT|INTERRES
   125   64   65 1    
   126   64  130 1    
   127   65   66 1    
   128   65   69 1    
   129   65  131 1    
   130   66   67 am   BACKBONE|DICT|INTERRES
   131   66   68 2    
   132   67  132 1    
   133   67  133 1    
   134   69   70 1    
   135   69  134 1    
   136   69  135 1    
   137   70   71 1    
   138   71  136 1    
   139   71  137 1    
@<TRIPOS>SUBSTRUCTURE
     1 UNK         1 GROUP             0       ****    0 ROOT    
