@<TRIPOS>MOLECULE
3R137
137   139    1
SMALL
USER_CHARGES


@<TRIPOS>ATOM
      1 CA         30.5062    0.8910   -1.3550 C.3       0 UNK        -0.2020 
      2 C          29.7052   -0.2999   -1.8585 C.2       0 UNK         0.4855 
      3 O          29.3915   -0.3690   -3.0461 O.2       0 UNK        -0.5197 
      4 N          29.3809   -1.2367   -0.9601 N.am      1 UNK        -0.4892 
      5 CA         28.5663   -2.4216   -1.2456 C.3       1 UNK         0.0835 
      6 C6         28.8188   -3.5684   -0.2276 C.3       12 UNK        -0.0855 
      7 S7         30.5851   -3.9400    0.0721 S.3       12 UNK        -0.2931 
      8 C8         30.8973   -5.3597   -1.0258 C.3       12 UNK         0.0378 
      9 C9         30.9539   -4.9344   -2.4847 C.ar      12 UNK        -0.0802 
     10 C10        32.0571   -4.2208   -2.9659 C.ar      12 UNK        -0.0944 
     11 C11        32.1046   -3.7888   -4.2952 C.ar      12 UNK        -0.0787 
     12 C12        31.0295   -4.0797   -5.1420 C.ar      12 UNK        -0.0862 
     13 C13        29.9276   -4.8011   -4.6761 C.ar      12 UNK        -0.0733 
     14 C14        29.8990   -5.2373   -3.3491 C.ar      12 UNK        -0.0832 
     15 C15        28.7518   -5.0762   -5.5999 C.3       12 UNK         0.0240 
     16 S16        27.2846   -4.1176   -5.1134 S.3       12 UNK        -0.2522 
     17 C17        27.8584   -2.3944   -5.3154 C.3       12 UNK        -0.0967 
     18 CA         27.2081   -1.6721   -6.5166 C.3       5 UNK         0.0660 
     19 N          25.7480   -1.7696   -6.5195 N.am      5 UNK        -0.4015 
     20 C          24.9668   -1.5568   -7.5861 C.2       4 UNK         0.4946 
     21 O          25.3995   -1.2991   -8.7087 O.2       4 UNK        -0.5353 
     22 CA         23.4447   -1.6243   -7.3625 C.3       4 UNK         0.0277 
     23 CB         22.9294   -3.0490   -7.6211 C.3       4 UNK        -0.1981 
     24 N          23.0403   -1.1970   -6.0199 N.am      4 UNK        -0.4209 
     25 C          23.1488    0.0577   -5.5587 C.2       3 UNK         0.4942 
     26 O          23.5380    1.0046   -6.2416 O.2       3 UNK        -0.5208 
     27 CA         22.8351    0.2770   -4.0660 C.3       3 UNK         0.0250 
     28 CB         21.3308    0.5129   -3.8585 C.3       3 UNK        -0.1990 
     29 N          23.2892   -0.8222   -3.2010 N.am      3 UNK        -0.4232 
     30 C          24.5609   -1.2380   -3.1116 C.2       2 UNK         0.4993 
     31 O          25.4799   -0.7222   -3.7502 O.2       2 UNK        -0.5286 
     32 CA         24.8305   -2.4715   -2.2301 C.3       2 UNK         0.0209 
     33 CB         24.1768   -3.7255   -2.8390 C.3       2 UNK        -0.1931 
     34 N          26.2665   -2.7281   -2.0691 N.am      2 UNK        -0.4546 
     35 C          27.0703   -2.0361   -1.2516 C.2       1 UNK         0.5154 
     36 O          26.6618   -1.1611   -0.4816 O.2       1 UNK        -0.5181 
     37 C          27.6415   -0.1967   -6.5559 C.2       5 UNK         0.5014 
     38 O          28.5395    0.1506   -7.3221 O.2       5 UNK        -0.5248 
     39 N          26.9648    0.6549   -5.7712 N.am      6 UNK        -0.4434 
     40 CA         27.1329    2.1097   -5.7765 C.3       6 UNK         0.0363 
     41 CB         26.2994    2.7338   -4.6476 C.3       6 UNK        -0.1936 
     42 C          26.7861    2.7370   -7.1381 C.2       6 UNK         0.5081 
     43 O          27.5307    3.5932   -7.6147 O.2       6 UNK        -0.5248 
     44 N          25.7104    2.2529   -7.7775 N.am      7 UNK        -0.4718 
     45 CA         25.3264    2.6049   -9.1506 C.3       7 UNK         0.0273 
     46 CB         23.9456    2.0097   -9.4662 C.3       7 UNK        -0.1935 
     47 C          26.3593    2.1698  -10.2096 C.2       7 UNK         0.5018 
     48 O          26.4801    2.8327  -11.2397 O.2       7 UNK        -0.5186 
     49 N          27.1147    1.1013   -9.9201 N.am      8 UNK        -0.4240 
     50 CA         28.2593    0.6222  -10.7006 C.3       8 UNK         0.0235 
     51 CB         28.3235   -0.9132  -10.6035 C.3       8 UNK        -0.2000 
     52 C          29.5907    1.2796  -10.2729 C.2       8 UNK         0.4941 
     53 O          30.6537    0.7566  -10.6108 O.2       8 UNK        -0.5273 
     54 N          29.5187    2.4064   -9.5471 N.am      9 UNK        -0.4262 
     55 CA         30.6206    3.2540   -9.0802 C.3       9 UNK         0.0264 
     56 CB         31.4577    3.7954  -10.2602 C.3       9 UNK        -0.1955 
     57 C          31.4844    2.6291   -7.9684 C.2       9 UNK         0.5031 
     58 O          32.6342    3.0428   -7.8053 O.2       9 UNK        -0.5390 
     59 N          30.9243    1.6774   -7.2031 N.am      10 UNK        -0.4204 
     60 CA         31.4908    1.0736   -5.9875 C.3       10 UNK         0.0237 
     61 CB         31.4347    2.0852   -4.8233 C.3       10 UNK        -0.1985 
     62 C          32.8983    0.4765   -6.1866 C.2       10 UNK         0.4970 
     63 O          33.7748    0.6702   -5.3420 O.2       10 UNK        -0.4914 
     64 N          33.0861   -0.2224   -7.3139 N.am      11 UNK        -0.4285 
     65 CA         34.3592   -0.8080   -7.7727 C.3       11 UNK         0.1007 
     66 C          35.4409    0.2354   -8.1957 C.2       11 UNK         0.5703 
     67 N          35.1335    1.5231   -8.3081 N.am      11 UNK        -0.7361 
     68 O          36.5813   -0.1335   -8.4675 O.2       11 UNK        -0.4986 
     69 C69        34.9312   -1.8971   -6.8128 C.3       12 UNK        -0.0947 
     70 S70        33.7693   -3.2697   -6.5062 S.3       12 UNK        -0.2240 
     71 C71        33.2870   -2.9505   -4.7740 C.3       12 UNK         0.0194 
     72 H72        30.1258    1.8137   -1.7928 H         1 UNK         0.0906 
     73 H73        31.5534    0.7832   -1.6354 H         1 UNK         0.0906 
     74 H74        30.4513    0.9859   -0.2706 H         1 UNK         0.0906 
     75 H75        29.6557   -1.1244    0.0049 H         1 UNK         0.3140 
     76 H76        28.8340   -2.7819   -2.2415 H         1 UNK         0.1085 
     77 H77        28.3108   -4.4792   -0.5500 H         1 UNK         0.0836 
     78 H78        28.3839   -3.3151    0.7417 H         1 UNK         0.0836 
     79 H79        31.8496   -5.8147   -0.7495 H         1 UNK         0.0731 
     80 H80        30.1367   -6.1254   -0.8652 H         1 UNK         0.0731 
     81 H81        32.8680   -3.9795   -2.2919 H         1 UNK         0.1312 
     82 H82        31.0374   -3.7261   -6.1636 H         1 UNK         0.1406 
     83 H83        29.0404   -5.7860   -2.9859 H         1 UNK         0.1631 
     84 H84        28.5084   -6.1391   -5.5697 H         1 UNK         0.0717 
     85 H85        29.0023   -4.8463   -6.6367 H         1 UNK         0.0717 
     86 H86        27.6478   -1.8664   -4.3863 H         1 UNK         0.0934 
     87 H87        28.9430   -2.3635   -5.4154 H         1 UNK         0.0934 
     88 H88        27.5762   -2.1484   -7.4279 H         1 UNK         0.0739 
     89 H89        25.3198   -1.9171   -5.6170 H         1 UNK         0.3093 
     90 H90        22.9751   -0.9537   -8.0852 H         1 UNK         0.0818 
     91 H91        23.1959   -3.3824   -8.6253 H         1 UNK         0.0819 
     92 H92        23.3517   -3.7675   -6.9172 H         1 UNK         0.0819 
     93 H93        21.8431   -3.0991   -7.5434 H         1 UNK         0.0819 
     94 H94        22.6970   -1.9109   -5.3942 H         1 UNK         0.3041 
     95 H95        23.3666    1.1780   -3.7527 H         1 UNK         0.0784 
     96 H96        20.9768    1.3377   -4.4790 H         1 UNK         0.0793 
     97 H97        20.7416   -0.3672   -4.1193 H         1 UNK         0.0793 
     98 H98        21.1086    0.7719   -2.8231 H         1 UNK         0.0793 
     99 H99        22.5806   -1.2902   -2.6538 H         1 UNK         0.3024 
    100 H100       24.3940   -2.2860   -1.2458 H         1 UNK         0.1171 
    101 H101       23.0918   -3.6264   -2.8873 H         1 UNK         0.0786 
    102 H102       24.5310   -3.9183   -3.8522 H         1 UNK         0.0786 
    103 H103       24.3868   -4.6115   -2.2393 H         1 UNK         0.0786 
    104 H104       26.6706   -3.4067   -2.6995 H         1 UNK         0.2977 
    105 H105       26.2931    0.2684   -5.1101 H         1 UNK         0.3127 
    106 H106       28.1855    2.3170   -5.5762 H         1 UNK         0.0770 
    107 H107       25.2322    2.5662   -4.7921 H         1 UNK         0.0814 
    108 H108       26.4568    3.8119   -4.5986 H         1 UNK         0.0814 
    109 H109       26.5750    2.3195   -3.6774 H         1 UNK         0.0814 
    110 H110       25.1011    1.6062   -7.2832 H         1 UNK         0.2983 
    111 H111       25.2485    3.6931   -9.2015 H         1 UNK         0.0947 
    112 H112       23.9605    0.9203   -9.4360 H         1 UNK         0.0806 
    113 H113       23.6126    2.3034  -10.4626 H         1 UNK         0.0806 
    114 H114       23.1924    2.3545   -8.7575 H         1 UNK         0.0806 
    115 H115       26.9380    0.6132   -9.0512 H         1 UNK         0.3000 
    116 H116       28.1052    0.8810  -11.7501 H         1 UNK         0.0850 
    117 H117       29.0933   -1.3171  -11.2622 H         1 UNK         0.0810 
    118 H118       27.3772   -1.3691  -10.8954 H         1 UNK         0.0810 
    119 H119       28.5550   -1.2449   -9.5916 H         1 UNK         0.0810 
    120 H120       28.6000    2.7220   -9.2570 H         1 UNK         0.3040 
    121 H121       30.1383    4.1140   -8.6134 H         1 UNK         0.0766 
    122 H122       32.0519    3.0112  -10.7301 H         1 UNK         0.0812 
    123 H123       32.1517    4.5675   -9.9256 H         1 UNK         0.0812 
    124 H124       30.8239    4.2430  -11.0255 H         1 UNK         0.0812 
    125 H125       29.9955    1.3382   -7.4492 H         1 UNK         0.3205 
    126 H126       30.8428    0.2358   -5.7243 H         1 UNK         0.0754 
    127 H127       31.7920    1.6345   -3.8979 H         1 UNK         0.0769 
    128 H128       30.4158    2.4247   -4.6406 H         1 UNK         0.0769 
    129 H129       32.0535    2.9616   -5.0187 H         1 UNK         0.0769 
    130 H130       32.3153   -0.2982   -7.9618 H         1 UNK         0.2981 
    131 H131       34.1065   -1.3140   -8.7049 H         1 UNK         0.0541 
    132 H132       34.2075    1.8718   -8.0816 H         1 UNK         0.3459 
    133 H133       35.8492    2.1702   -8.5967 H         1 UNK         0.3459 
    134 H134       35.2460   -1.4579   -5.8653 H         1 UNK         0.0612 
    135 H135       35.8291   -2.3441   -7.2426 H         1 UNK         0.0612 
    136 H136       34.1577   -3.1254   -4.1402 H         1 UNK         0.0624 
    137 H137       33.0206   -1.9019   -4.6541 H         1 UNK         0.0624 
@<TRIPOS>BOND
     1    1    2 1    
     2    1   72 1    
     3    1   73 1    
     4    1   74 1    
     5    2    3 2    
     6    2    4 am   BACKBONE|DICT|INTERRES
     7    4    5 1    
     8    4   75 1    
     9    5    6 1    
    10    5   35 1    
    11    5   76 1    
    12    6    7 1    
    13    6   77 1    
    14    6   78 1    
    15    7    8 1    
    16    8    9 1    
    17    8   79 1    
    18    8   80 1    
    19    9   10 ar   
    20    9   14 ar   
    21   10   11 ar   
    22   10   81 1    
    23   11   12 ar   
    24   11   71 1    
    25   12   13 ar   
    26   12   82 1    
    27   13   14 ar   
    28   13   15 1    
    29   14   83 1    
    30   15   16 1    
    31   15   84 1    
    32   15   85 1    
    33   16   17 1    
    34   17   18 1    
    35   17   86 1    
    36   17   87 1    
    37   18   19 1    
    38   18   37 1    
    39   18   88 1    
    40   19   20 am   BACKBONE|DICT|INTERRES
    41   19   89 1    
    42   20   21 2    
    43   20   22 1    
    44   22   23 1    
    45   22   24 1    
    46   22   90 1    
    47   23   91 1    
    48   23   92 1    
    49   23   93 1    
    50   24   25 am   BACKBONE|DICT|INTERRES
    51   24   94 1    
    52   25   26 2    
    53   25   27 1    
    54   27   28 1    
    55   27   29 1    
    56   27   95 1    
    57   28   96 1    
    58   28   97 1    
    59   28   98 1    
    60   29   30 am   BACKBONE|DICT|INTERRES
    61   29   99 1    
    62   30   31 2    
    63   30   32 1    
    64   32   33 1    
    65   32   34 1    
    66   32  100 1    
    67   33  101 1    
    68   33  102 1    
    69   33  103 1    
    70   34   35 am   BACKBONE|DICT|INTERRES
    71   34  104 1    
    72   35   36 2    
    73   37   38 2    
    74   37   39 am   BACKBONE|DICT|INTERRES
    75   39   40 1    
    76   39  105 1    
    77   40   41 1    
    78   40   42 1    
    79   40  106 1    
    80   41  107 1    
    81   41  108 1    
    82   41  109 1    
    83   42   43 2    
    84   42   44 am   BACKBONE|DICT|INTERRES
    85   44   45 1    
    86   44  110 1    
    87   45   46 1    
    88   45   47 1    
    89   45  111 1    
    90   46  112 1    
    91   46  113 1    
    92   46  114 1    
    93   47   48 2    
    94   47   49 am   BACKBONE|DICT|INTERRES
    95   49   50 1    
    96   49  115 1    
    97   50   51 1    
    98   50   52 1    
    99   50  116 1    
   100   51  117 1    
   101   51  118 1    
   102   51  119 1    
   103   52   53 2    
   104   52   54 am   BACKBONE|DICT|INTERRES
   105   54   55 1    
   106   54  120 1    
   107   55   56 1    
   108   55   57 1    
   109   55  121 1    
   110   56  122 1    
   111   56  123 1    
   112   56  124 1    
   113   57   58 2    
   114   57   59 am   BACKBONE|DICT|INTERRES
   115   59   60 1    
   116   59  125 1    
   117   60   61 1    
   118   60   62 1    
   119   60  126 1    
   120   61  127 1    
   121   61  128 1    
   122   61  129 1    
   123   62   63 2    
   124   62   64 am   BACKBONE|DICT|INTERRES
   125   64   65 1    
   126   64  130 1    
   127   65   66 1    
   128   65   69 1    
   129   65  131 1    
   130   66   67 am   BACKBONE|DICT|INTERRES
   131   66   68 2    
   132   67  132 1    
   133   67  133 1    
   134   69   70 1    
   135   69  134 1    
   136   69  135 1    
   137   70   71 1    
   138   71  136 1    
   139   71  137 1    
@<TRIPOS>SUBSTRUCTURE
     1 UNK         1 GROUP             0       ****    0 ROOT    
