@<TRIPOS>MOLECULE
3R137
137   139    1
SMALL
USER_CHARGES


@<TRIPOS>ATOM
      1 CA         26.8767   -7.4228    0.2854 C.3       0 UNK        -0.2020 
      2 C          26.6958   -5.9163    0.3973 C.2       0 UNK         0.4855 
      3 O          25.8459   -5.4561    1.1609 O.2       0 UNK        -0.5197 
      4 N          27.4949   -5.1452   -0.3492 N.am      1 UNK        -0.4892 
      5 CA         27.4112   -3.6844   -0.4395 C.3       1 UNK         0.0835 
      6 C6         28.7220   -3.0568   -0.9791 C.3       12 UNK        -0.0855 
      7 S7         29.3930   -3.8622   -2.4765 S.3       12 UNK        -0.2931 
      8 C8         31.0977   -3.2223   -2.4885 C.3       12 UNK         0.0378 
      9 C9         31.1638   -1.8094   -3.0498 C.ar      12 UNK        -0.0802 
     10 C10        31.4679   -1.6060   -4.3986 C.ar      12 UNK        -0.0944 
     11 C11        31.5458   -0.3120   -4.9197 C.ar      12 UNK        -0.0787 
     12 C12        31.3100    0.7830   -4.0845 C.ar      12 UNK        -0.0862 
     13 C13        30.9714    0.5931   -2.7417 C.ar      12 UNK        -0.0733 
     14 C14        30.9236   -0.7057   -2.2254 C.ar      12 UNK        -0.0832 
     15 C15        30.6376    1.7828   -1.8470 C.3       12 UNK         0.0240 
     16 S16        29.3227    2.8586   -2.5246 S.3       12 UNK        -0.2522 
     17 C17        28.0197    1.6696   -2.9995 C.3       12 UNK        -0.0967 
     18 CA         27.8994    1.5479   -4.5443 C.3       5 UNK         0.0660 
     19 N          27.5981    0.1824   -4.9683 N.am      5 UNK        -0.4015 
     20 C          27.8479   -0.3056   -6.1907 C.2       4 UNK         0.4946 
     21 O          28.4102    0.3277   -7.0861 O.2       4 UNK        -0.5353 
     22 CA         27.3625   -1.7376   -6.4740 C.3       4 UNK         0.0277 
     23 CB         28.4515   -2.7545   -6.1036 C.3       4 UNK        -0.1981 
     24 N          26.1134   -2.0748   -5.7805 N.am      4 UNK        -0.4209 
     25 C          24.9359   -1.4918   -6.0466 C.2       3 UNK         0.4942 
     26 O          24.7856   -0.6153   -6.8950 O.2       3 UNK        -0.5208 
     27 CA         23.7254   -1.9201   -5.2043 C.3       3 UNK         0.0250 
     28 CB         23.1406   -3.2392   -5.7338 C.3       3 UNK        -0.1990 
     29 N          23.9716   -2.0376   -3.7637 N.am      3 UNK        -0.4232 
     30 C          24.5483   -1.1276   -2.9654 C.2       2 UNK         0.4993 
     31 O          25.1063   -0.1056   -3.3682 O.2       2 UNK        -0.5286 
     32 CA         24.4725   -1.3841   -1.4505 C.3       2 UNK         0.0209 
     33 CB         23.1987   -2.1459   -1.0172 C.3       2 UNK        -0.1931 
     34 N          25.6751   -2.0314   -0.9155 N.am      2 UNK        -0.4546 
     35 C          26.1756   -3.2313   -1.2469 C.2       1 UNK         0.5154 
     36 O          25.7093   -3.9576   -2.1296 O.2       1 UNK        -0.5181 
     37 C          26.8683    2.5311   -5.1273 C.2       5 UNK         0.5014 
     38 O          27.2551    3.5696   -5.6638 O.2       5 UNK        -0.5248 
     39 N          25.5795    2.1676   -5.0413 N.am      6 UNK        -0.4434 
     40 CA         24.4459    2.9442   -5.5497 C.3       6 UNK         0.0363 
     41 CB         23.1322    2.2785   -5.1103 C.3       6 UNK        -0.1936 
     42 C          24.4734    3.1394   -7.0755 C.2       6 UNK         0.5081 
     43 O          24.2120    4.2460   -7.5478 O.2       6 UNK        -0.5248 
     44 N          24.8063    2.0745   -7.8174 N.am      7 UNK        -0.4718 
     45 CA         24.9576    2.0949   -9.2754 C.3       7 UNK         0.0273 
     46 CB         24.8325    0.6596   -9.8133 C.3       7 UNK        -0.1935 
     47 C          26.2837    2.7179   -9.7467 C.2       7 UNK         0.5018 
     48 O          26.3961    3.0309  -10.9326 O.2       7 UNK        -0.5186 
     49 N          27.2552    2.8628   -8.8309 N.am      8 UNK        -0.4240 
     50 CA         28.6383    3.2992   -9.0544 C.3       8 UNK         0.0235 
     51 CB         28.6908    4.7821   -9.4798 C.3       8 UNK        -0.2000 
     52 C          29.3734    2.3566  -10.0258 C.2       8 UNK         0.4941 
     53 O          29.8416    2.7862  -11.0833 O.2       8 UNK        -0.5273 
     54 N          29.4153    1.0709   -9.6538 N.am      9 UNK        -0.4262 
     55 CA         30.0554   -0.0115  -10.4034 C.3       9 UNK         0.0264 
     56 CB         29.5439   -1.3499   -9.8372 C.3       9 UNK        -0.1955 
     57 C          31.5956    0.0625  -10.3615 C.2       9 UNK         0.5031 
     58 O          32.1656    0.9235   -9.6890 O.2       9 UNK        -0.5390 
     59 N          32.2483   -0.8767  -11.0619 N.am      10 UNK        -0.4204 
     60 CA         33.7080   -1.0504  -11.0824 C.3       10 UNK         0.0237 
     61 CB         34.0818   -2.0036  -12.2302 C.3       10 UNK        -0.1985 
     62 C          34.3073   -1.5500   -9.7499 C.2       10 UNK         0.4970 
     63 O          35.5207   -1.4469   -9.5662 O.2       10 UNK        -0.4914 
     64 N          33.4557   -2.0807   -8.8613 N.am      11 UNK        -0.4285 
     65 CA         33.7699   -2.5554   -7.5013 C.3       11 UNK         0.1007 
     66 C          34.5719   -3.8906   -7.4418 C.2       11 UNK         0.5703 
     67 N          34.7211   -4.6245   -8.5383 N.am      11 UNK        -0.7361 
     68 O          35.0384   -4.2894   -6.3772 O.2       11 UNK        -0.4986 
     69 C69        34.3751   -1.4613   -6.5646 C.3       12 UNK        -0.0947 
     70 S70        33.6298    0.2068   -6.6649 S.3       12 UNK        -0.2240 
     71 C71        31.8559   -0.0881   -6.3892 C.3       12 UNK         0.0194 
     72 H72        25.9533   -7.8863   -0.0609 H         1 UNK         0.0906 
     73 H73        27.6712   -7.6873   -0.4123 H         1 UNK         0.0906 
     74 H74        27.1260   -7.8446    1.2587 H         1 UNK         0.0906 
     75 H75        28.1510   -5.5686   -0.9912 H         1 UNK         0.3140 
     76 H76        27.2716   -3.3121    0.5784 H         1 UNK         0.1085 
     77 H77        29.4811   -3.1161   -0.1975 H         1 UNK         0.0836 
     78 H78        28.5876   -1.9924   -1.1789 H         1 UNK         0.0836 
     79 H79        31.7146   -3.8902   -3.0918 H         1 UNK         0.0731 
     80 H80        31.5194   -3.2527   -1.4827 H         1 UNK         0.0731 
     81 H81        31.6428   -2.4570   -5.0412 H         1 UNK         0.1312 
     82 H82        31.3601    1.7852   -4.4877 H         1 UNK         0.1406 
     83 H83        30.6858   -0.8601   -1.1822 H         1 UNK         0.1631 
     84 H84        31.5390    2.3785   -1.6983 H         1 UNK         0.0717 
     85 H85        30.3260    1.4451   -0.8574 H         1 UNK         0.0717 
     86 H86        28.2531    0.7017   -2.5538 H         1 UNK         0.0934 
     87 H87        27.0767    1.9687   -2.5368 H         1 UNK         0.0934 
     88 H88        28.8626    1.8036   -4.9903 H         1 UNK         0.0739 
     89 H89        27.0500   -0.3742   -4.3259 H         1 UNK         0.3093 
     90 H90        27.1777   -1.8119   -7.5478 H         1 UNK         0.0818 
     91 H91        29.3804   -2.5455   -6.6349 H         1 UNK         0.0819 
     92 H92        28.1537   -3.7714   -6.3588 H         1 UNK         0.0819 
     93 H93        28.6765   -2.7255   -5.0382 H         1 UNK         0.0819 
     94 H94        26.1543   -2.7789   -5.0565 H         1 UNK         0.3041 
     95 H95        22.9645   -1.1473   -5.3265 H         1 UNK         0.0784 
     96 H96        22.9370   -3.1755   -6.8039 H         1 UNK         0.0793 
     97 H97        23.8244   -4.0751   -5.5805 H         1 UNK         0.0793 
     98 H98        22.1984   -3.4819   -5.2420 H         1 UNK         0.0793 
     99 H99        23.6134   -2.8709   -3.3191 H         1 UNK         0.3024 
    100 H100       24.4248   -0.3957   -0.9894 H         1 UNK         0.1171 
    101 H101       23.1011   -2.1525    0.0685 H         1 UNK         0.0786 
    102 H102       22.3013   -1.6692   -1.4145 H         1 UNK         0.0786 
    103 H103       23.1955   -3.1843   -1.3495 H         1 UNK         0.0786 
    104 H104       26.1571   -1.5003   -0.2031 H         1 UNK         0.2977 
    105 H105       25.3571    1.3022   -4.5522 H         1 UNK         0.3127 
    106 H106       24.4963    3.9335   -5.0900 H         1 UNK         0.0770 
    107 H107       23.0266    1.2796   -5.5338 H         1 UNK         0.0814 
    108 H108       22.2709    2.8635   -5.4355 H         1 UNK         0.0814 
    109 H109       23.0743    2.1901   -4.0253 H         1 UNK         0.0814 
    110 H110       24.9396    1.1728   -7.3614 H         1 UNK         0.2983 
    111 H111       24.1472    2.6910   -9.7010 H         1 UNK         0.0947 
    112 H112       24.8797    0.6433  -10.9030 H         1 UNK         0.0806 
    113 H113       23.8839    0.2075   -9.5231 H         1 UNK         0.0806 
    114 H114       25.6355    0.0208   -9.4426 H         1 UNK         0.0806 
    115 H115       27.0425    2.5742   -7.8852 H         1 UNK         0.3000 
    116 H116       29.1470    3.2138   -8.0924 H         1 UNK         0.0850 
    117 H117       29.7227    5.1262   -9.5583 H         1 UNK         0.0810 
    118 H118       28.1900    5.4194   -8.7509 H         1 UNK         0.0810 
    119 H119       28.2199    4.9466  -10.4494 H         1 UNK         0.0810 
    120 H120       29.0279    0.8207   -8.7445 H         1 UNK         0.3040 
    121 H121       29.7452    0.0700  -11.4472 H         1 UNK         0.0766 
    122 H122       28.4544   -1.3923   -9.8518 H         1 UNK         0.0812 
    123 H123       29.8658   -1.4972   -8.8063 H         1 UNK         0.0812 
    124 H124       29.9004   -2.2003  -10.4190 H         1 UNK         0.0812 
    125 H125       31.7105   -1.5359  -11.6069 H         1 UNK         0.3205 
    126 H126       34.1576   -0.0765  -11.2878 H         1 UNK         0.0754 
    127 H127       35.1635   -2.1304  -12.2973 H         1 UNK         0.0769 
    128 H128       33.7448   -1.6177  -13.1926 H         1 UNK         0.0769 
    129 H129       33.6459   -2.9940  -12.0931 H         1 UNK         0.0769 
    130 H130       32.4866   -2.1480   -9.1289 H         1 UNK         0.2981 
    131 H131       32.8021   -2.8279   -7.0829 H         1 UNK         0.0541 
    132 H132       35.2315   -5.4919   -8.4851 H         1 UNK         0.3459 
    133 H133       34.3399   -4.3152   -9.4174 H         1 UNK         0.3459 
    134 H134       34.3161   -1.7864   -5.5245 H         1 UNK         0.0612 
    135 H135       35.4386   -1.3413   -6.7773 H         1 UNK         0.0612 
    136 H136       31.3043    0.7826   -6.7476 H         1 UNK         0.0624 
    137 H137       31.5035   -0.9226   -6.9936 H         1 UNK         0.0624 
@<TRIPOS>BOND
     1    1    2 1    
     2    1   72 1    
     3    1   73 1    
     4    1   74 1    
     5    2    3 2    
     6    2    4 am   BACKBONE|DICT|INTERRES
     7    4    5 1    
     8    4   75 1    
     9    5    6 1    
    10    5   35 1    
    11    5   76 1    
    12    6    7 1    
    13    6   77 1    
    14    6   78 1    
    15    7    8 1    
    16    8    9 1    
    17    8   79 1    
    18    8   80 1    
    19    9   10 ar   
    20    9   14 ar   
    21   10   11 ar   
    22   10   81 1    
    23   11   12 ar   
    24   11   71 1    
    25   12   13 ar   
    26   12   82 1    
    27   13   14 ar   
    28   13   15 1    
    29   14   83 1    
    30   15   16 1    
    31   15   84 1    
    32   15   85 1    
    33   16   17 1    
    34   17   18 1    
    35   17   86 1    
    36   17   87 1    
    37   18   19 1    
    38   18   37 1    
    39   18   88 1    
    40   19   20 am   BACKBONE|DICT|INTERRES
    41   19   89 1    
    42   20   21 2    
    43   20   22 1    
    44   22   23 1    
    45   22   24 1    
    46   22   90 1    
    47   23   91 1    
    48   23   92 1    
    49   23   93 1    
    50   24   25 am   BACKBONE|DICT|INTERRES
    51   24   94 1    
    52   25   26 2    
    53   25   27 1    
    54   27   28 1    
    55   27   29 1    
    56   27   95 1    
    57   28   96 1    
    58   28   97 1    
    59   28   98 1    
    60   29   30 am   BACKBONE|DICT|INTERRES
    61   29   99 1    
    62   30   31 2    
    63   30   32 1    
    64   32   33 1    
    65   32   34 1    
    66   32  100 1    
    67   33  101 1    
    68   33  102 1    
    69   33  103 1    
    70   34   35 am   BACKBONE|DICT|INTERRES
    71   34  104 1    
    72   35   36 2    
    73   37   38 2    
    74   37   39 am   BACKBONE|DICT|INTERRES
    75   39   40 1    
    76   39  105 1    
    77   40   41 1    
    78   40   42 1    
    79   40  106 1    
    80   41  107 1    
    81   41  108 1    
    82   41  109 1    
    83   42   43 2    
    84   42   44 am   BACKBONE|DICT|INTERRES
    85   44   45 1    
    86   44  110 1    
    87   45   46 1    
    88   45   47 1    
    89   45  111 1    
    90   46  112 1    
    91   46  113 1    
    92   46  114 1    
    93   47   48 2    
    94   47   49 am   BACKBONE|DICT|INTERRES
    95   49   50 1    
    96   49  115 1    
    97   50   51 1    
    98   50   52 1    
    99   50  116 1    
   100   51  117 1    
   101   51  118 1    
   102   51  119 1    
   103   52   53 2    
   104   52   54 am   BACKBONE|DICT|INTERRES
   105   54   55 1    
   106   54  120 1    
   107   55   56 1    
   108   55   57 1    
   109   55  121 1    
   110   56  122 1    
   111   56  123 1    
   112   56  124 1    
   113   57   58 2    
   114   57   59 am   BACKBONE|DICT|INTERRES
   115   59   60 1    
   116   59  125 1    
   117   60   61 1    
   118   60   62 1    
   119   60  126 1    
   120   61  127 1    
   121   61  128 1    
   122   61  129 1    
   123   62   63 2    
   124   62   64 am   BACKBONE|DICT|INTERRES
   125   64   65 1    
   126   64  130 1    
   127   65   66 1    
   128   65   69 1    
   129   65  131 1    
   130   66   67 am   BACKBONE|DICT|INTERRES
   131   66   68 2    
   132   67  132 1    
   133   67  133 1    
   134   69   70 1    
   135   69  134 1    
   136   69  135 1    
   137   70   71 1    
   138   71  136 1    
   139   71  137 1    
@<TRIPOS>SUBSTRUCTURE
     1 UNK         1 GROUP             0       ****    0 ROOT    
