@<TRIPOS>MOLECULE
3R137
137   139    1
SMALL
USER_CHARGES


@<TRIPOS>ATOM
      1 CA         29.5827   -5.6230   -0.3474 C.3       0 UNK        -0.2020 
      2 C          28.4141   -4.8911    0.2955 C.2       0 UNK         0.4855 
      3 O          27.5303   -5.5285    0.8678 O.2       0 UNK        -0.5197 
      4 N          28.4018   -3.5548    0.2025 N.am      1 UNK        -0.4892 
      5 CA         27.3541   -2.6763    0.7401 C.3       1 UNK         0.0835 
      6 C6         27.8625   -1.2166    0.8950 C.3       12 UNK        -0.0855 
      7 S7         28.1996   -0.3544   -0.6827 S.3       12 UNK        -0.2931 
      8 C8         29.9850   -0.6240   -0.9139 C.3       12 UNK         0.0378 
      9 C9         30.3000   -0.9244   -2.3721 C.ar      12 UNK        -0.0802 
     10 C10        30.9536    0.0180   -3.1719 C.ar      12 UNK        -0.0944 
     11 C11        31.2408   -0.2667   -4.5110 C.ar      12 UNK        -0.0787 
     12 C12        30.8703   -1.5039   -5.0502 C.ar      12 UNK        -0.0862 
     13 C13        30.2101   -2.4493   -4.2613 C.ar      12 UNK        -0.0733 
     14 C14        29.9309   -2.1535   -2.9260 C.ar      12 UNK        -0.0832 
     15 C15        29.7947   -3.7953   -4.8332 C.3       12 UNK         0.0240 
     16 S16        28.0675   -3.7743   -5.4105 S.3       12 UNK        -0.2522 
     17 C17        28.2521   -3.2959   -7.1609 C.3       12 UNK        -0.0967 
     18 CA         27.4755   -2.0273   -7.5882 C.3       5 UNK         0.0660 
     19 N          26.0456   -2.0949   -7.2722 N.am      5 UNK        -0.4015 
     20 C          25.1151   -1.3417   -7.8748 C.2       4 UNK         0.4946 
     21 O          25.3675   -0.5122   -8.7501 O.2       4 UNK        -0.5353 
     22 CA         23.6640   -1.5253   -7.4031 C.3       4 UNK         0.0277 
     23 CB         23.1098   -2.8932   -7.8356 C.3       4 UNK        -0.1981 
     24 N          23.4980   -1.3557   -5.9568 N.am      4 UNK        -0.4209 
     25 C          23.7496   -0.2198   -5.2899 C.2       3 UNK         0.4942 
     26 O          24.1988    0.7965   -5.8144 O.2       3 UNK        -0.5208 
     27 CA         23.4540   -0.2018   -3.7816 C.3       3 UNK         0.0250 
     28 CB         22.0167    0.2790   -3.5249 C.3       3 UNK        -0.1990 
     29 N          23.6683   -1.4841   -3.1061 N.am      3 UNK        -0.4232 
     30 C          24.8543   -2.0973   -3.0041 C.2       2 UNK         0.4993 
     31 O          25.8827   -1.7027   -3.5582 O.2       2 UNK        -0.5286 
     32 CA         24.8892   -3.3765   -2.1574 C.3       2 UNK         0.0209 
     33 CB         24.9961   -4.6245   -3.0481 C.3       2 UNK        -0.1931 
     34 N          26.0313   -3.3280   -1.2478 N.am      2 UNK        -0.4546 
     35 C          26.0161   -2.7536   -0.0362 C.2       1 UNK         0.5154 
     36 O          24.9961   -2.2924    0.4802 O.2       1 UNK        -0.5181 
     37 C          28.1288   -0.7197   -7.0995 C.2       5 UNK         0.5014 
     38 O          29.0718   -0.2488   -7.7422 O.2       5 UNK        -0.5248 
     39 N          27.5959   -0.1379   -6.0140 N.am      6 UNK        -0.4434 
     40 CA         27.9782    1.1792   -5.5091 C.3       6 UNK         0.0363 
     41 CB         27.3839    1.3969   -4.1111 C.3       6 UNK        -0.1936 
     42 C          27.5798    2.3091   -6.4703 C.2       6 UNK         0.5081 
     43 O          28.4218    3.1482   -6.7872 O.2       6 UNK        -0.5248 
     44 N          26.3286    2.2925   -6.9543 N.am      7 UNK        -0.4718 
     45 CA         25.8018    3.2436   -7.9399 C.3       7 UNK         0.0273 
     46 CB         24.2840    3.0542   -8.0882 C.3       7 UNK        -0.1935 
     47 C          26.4939    3.1358   -9.3078 C.2       7 UNK         0.5018 
     48 O          26.7348    4.1618   -9.9448 O.2       7 UNK        -0.5186 
     49 N          26.8336    1.9051   -9.7170 N.am      8 UNK        -0.4240 
     50 CA         27.6364    1.6214  -10.9101 C.3       8 UNK         0.0235 
     51 CB         27.5156    0.1276  -11.2524 C.3       8 UNK        -0.2000 
     52 C          29.1208    2.0108  -10.7632 C.2       8 UNK         0.4941 
     53 O          29.8113    2.0964  -11.7793 O.2       8 UNK        -0.5273 
     54 N          29.5861    2.2104   -9.5188 N.am      9 UNK        -0.4262 
     55 CA         30.9692    2.4759   -9.1064 C.3       9 UNK         0.0264 
     56 CB         31.4352    3.8625   -9.5966 C.3       9 UNK        -0.1955 
     57 C          31.9307    1.3393   -9.5039 C.2       9 UNK         0.5031 
     58 O          33.0736    1.5991   -9.8874 O.2       9 UNK        -0.5390 
     59 N          31.4531    0.0897   -9.3963 N.am      10 UNK        -0.4204 
     60 CA         32.1570   -1.1194   -9.8434 C.3       10 UNK         0.0237 
     61 CB         31.1974   -2.3153   -9.7706 C.3       10 UNK        -0.1985 
     62 C          33.4495   -1.4214   -9.0635 C.2       10 UNK         0.4970 
     63 O          34.3192   -2.1216   -9.5825 O.2       10 UNK        -0.4914 
     64 N          33.5503   -0.8822   -7.8440 N.am      11 UNK        -0.4285 
     65 CA         34.7439   -0.9101   -6.9937 C.3       11 UNK         0.1007 
     66 C          35.8976    0.0293   -7.4595 C.2       11 UNK         0.5703 
     67 N          35.6938    0.9158   -8.4292 N.am      11 UNK        -0.7361 
     68 O          37.0068   -0.0615   -6.9385 O.2       11 UNK        -0.4986 
     69 C69        34.3646   -0.7104   -5.5016 C.3       12 UNK        -0.0947 
     70 S70        33.6957    0.9427   -5.0888 S.3       12 UNK        -0.2240 
     71 C71        31.9053    0.7828   -5.3890 C.3       12 UNK         0.0194 
     72 H72        30.0893   -6.2425    0.3923 H         1 UNK         0.0906 
     73 H73        29.2246   -6.2719   -1.1464 H         1 UNK         0.0906 
     74 H74        30.3154   -4.9361   -0.7705 H         1 UNK         0.0906 
     75 H75        29.1659   -3.0801   -0.2522 H         1 UNK         0.3140 
     76 H76        27.1255   -3.0384    1.7454 H         1 UNK         0.1085 
     77 H77        27.1216   -0.6275    1.4389 H         1 UNK         0.0836 
     78 H78        28.7564   -1.1943    1.5205 H         1 UNK         0.0836 
     79 H79        30.5236    0.2615   -0.5727 H         1 UNK         0.0731 
     80 H80        30.3364   -1.4501   -0.2953 H         1 UNK         0.0731 
     81 H81        31.2336    0.9768   -2.7575 H         1 UNK         0.1312 
     82 H82        31.0792   -1.7249   -6.0875 H         1 UNK         0.1406 
     83 H83        29.4062   -2.8805   -2.3257 H         1 UNK         0.1631 
     84 H84        29.8887   -4.5608   -4.0614 H         1 UNK         0.0717 
     85 H85        30.4671   -4.1021   -5.6356 H         1 UNK         0.0717 
     86 H86        29.3077   -3.1909   -7.4031 H         1 UNK         0.0934 
     87 H87        27.9076   -4.1402   -7.7602 H         1 UNK         0.0934 
     88 H88        27.5474   -1.9928   -8.6771 H         1 UNK         0.0739 
     89 H89        25.7772   -2.7273   -6.5319 H         1 UNK         0.3093 
     90 H90        23.0668   -0.7523   -7.8920 H         1 UNK         0.0818 
     91 H91        22.0454   -2.9762   -7.6153 H         1 UNK         0.0819 
     92 H92        23.2270   -3.0389   -8.9105 H         1 UNK         0.0819 
     93 H93        23.6198   -3.7186   -7.3373 H         1 UNK         0.0819 
     94 H94        23.1314   -2.1410   -5.4396 H         1 UNK         0.3041 
     95 H95        24.1364    0.5205   -3.3288 H         1 UNK         0.0784 
     96 H96        21.8388    1.2456   -3.9988 H         1 UNK         0.0793 
     97 H97        21.2786   -0.4190   -3.9219 H         1 UNK         0.0793 
     98 H98        21.8236    0.4040   -2.4592 H         1 UNK         0.0793 
     99 H99        22.8702   -1.8796   -2.6296 H         1 UNK         0.3024 
    100 H100       23.9676   -3.4518   -1.5753 H         1 UNK         0.1171 
    101 H101       24.1574   -4.6838   -3.7428 H         1 UNK         0.0786 
    102 H102       24.9881   -5.5368   -2.4514 H         1 UNK         0.0786 
    103 H103       25.9108   -4.6226   -3.6398 H         1 UNK         0.0786 
    104 H104       26.9193   -3.6266   -1.6213 H         1 UNK         0.2977 
    105 H105       26.8613   -0.6210   -5.5126 H         1 UNK         0.3127 
    106 H106       29.0634    1.1959   -5.4167 H         1 UNK         0.0770 
    107 H107       26.2946    1.4100   -4.1283 H         1 UNK         0.0814 
    108 H108       27.6964    0.6064   -3.4291 H         1 UNK         0.0814 
    109 H109       27.7183    2.3443   -3.6873 H         1 UNK         0.0814 
    110 H110       25.6725    1.5932   -6.6097 H         1 UNK         0.2983 
    111 H111       25.9847    4.2508   -7.5592 H         1 UNK         0.0947 
    112 H112       23.8701    3.7534   -8.8160 H         1 UNK         0.0806 
    113 H113       23.7697    3.2281   -7.1429 H         1 UNK         0.0806 
    114 H114       24.0352    2.0460   -8.4226 H         1 UNK         0.0806 
    115 H115       26.5171    1.1072   -9.1729 H         1 UNK         0.3000 
    116 H116       27.2266    2.1988  -11.7415 H         1 UNK         0.0850 
    117 H117       28.0437   -0.1057  -12.1779 H         1 UNK         0.0810 
    118 H118       26.4750   -0.1675  -11.3892 H         1 UNK         0.0810 
    119 H119       27.9423   -0.4979  -10.4686 H         1 UNK         0.0810 
    120 H120       28.9289    2.1143   -8.7542 H         1 UNK         0.3040 
    121 H121       30.9592    2.4990   -8.0159 H         1 UNK         0.0766 
    122 H122       32.4118    4.1153   -9.1821 H         1 UNK         0.0812 
    123 H123       30.7407    4.6441   -9.2887 H         1 UNK         0.0812 
    124 H124       31.5240    3.8998  -10.6828 H         1 UNK         0.0812 
    125 H125       30.5231   -0.0351   -9.0004 H         1 UNK         0.3205 
    126 H126       32.4358   -0.9667  -10.8882 H         1 UNK         0.0754 
    127 H127       31.6512   -3.2069  -10.2055 H         1 UNK         0.0769 
    128 H128       30.2716   -2.1231  -10.3135 H         1 UNK         0.0769 
    129 H129       30.9450   -2.5503   -8.7386 H         1 UNK         0.0769 
    130 H130       32.7964   -0.2997   -7.5192 H         1 UNK         0.2981 
    131 H131       35.1551   -1.9183   -7.0714 H         1 UNK         0.0541 
    132 H132       34.7881    1.0135   -8.8735 H         1 UNK         0.3459 
    133 H133       36.4560    1.5078   -8.7177 H         1 UNK         0.3459 
    134 H134       35.2445   -0.8701   -4.8762 H         1 UNK         0.0612 
    135 H135       33.6574   -1.4791   -5.1910 H         1 UNK         0.0612 
    136 H136       31.7177    0.5749   -6.4411 H         1 UNK         0.0624 
    137 H137       31.4431    1.7520   -5.1961 H         1 UNK         0.0624 
@<TRIPOS>BOND
     1    1    2 1    
     2    1   72 1    
     3    1   73 1    
     4    1   74 1    
     5    2    3 2    
     6    2    4 am   BACKBONE|DICT|INTERRES
     7    4    5 1    
     8    4   75 1    
     9    5    6 1    
    10    5   35 1    
    11    5   76 1    
    12    6    7 1    
    13    6   77 1    
    14    6   78 1    
    15    7    8 1    
    16    8    9 1    
    17    8   79 1    
    18    8   80 1    
    19    9   10 ar   
    20    9   14 ar   
    21   10   11 ar   
    22   10   81 1    
    23   11   12 ar   
    24   11   71 1    
    25   12   13 ar   
    26   12   82 1    
    27   13   14 ar   
    28   13   15 1    
    29   14   83 1    
    30   15   16 1    
    31   15   84 1    
    32   15   85 1    
    33   16   17 1    
    34   17   18 1    
    35   17   86 1    
    36   17   87 1    
    37   18   19 1    
    38   18   37 1    
    39   18   88 1    
    40   19   20 am   BACKBONE|DICT|INTERRES
    41   19   89 1    
    42   20   21 2    
    43   20   22 1    
    44   22   23 1    
    45   22   24 1    
    46   22   90 1    
    47   23   91 1    
    48   23   92 1    
    49   23   93 1    
    50   24   25 am   BACKBONE|DICT|INTERRES
    51   24   94 1    
    52   25   26 2    
    53   25   27 1    
    54   27   28 1    
    55   27   29 1    
    56   27   95 1    
    57   28   96 1    
    58   28   97 1    
    59   28   98 1    
    60   29   30 am   BACKBONE|DICT|INTERRES
    61   29   99 1    
    62   30   31 2    
    63   30   32 1    
    64   32   33 1    
    65   32   34 1    
    66   32  100 1    
    67   33  101 1    
    68   33  102 1    
    69   33  103 1    
    70   34   35 am   BACKBONE|DICT|INTERRES
    71   34  104 1    
    72   35   36 2    
    73   37   38 2    
    74   37   39 am   BACKBONE|DICT|INTERRES
    75   39   40 1    
    76   39  105 1    
    77   40   41 1    
    78   40   42 1    
    79   40  106 1    
    80   41  107 1    
    81   41  108 1    
    82   41  109 1    
    83   42   43 2    
    84   42   44 am   BACKBONE|DICT|INTERRES
    85   44   45 1    
    86   44  110 1    
    87   45   46 1    
    88   45   47 1    
    89   45  111 1    
    90   46  112 1    
    91   46  113 1    
    92   46  114 1    
    93   47   48 2    
    94   47   49 am   BACKBONE|DICT|INTERRES
    95   49   50 1    
    96   49  115 1    
    97   50   51 1    
    98   50   52 1    
    99   50  116 1    
   100   51  117 1    
   101   51  118 1    
   102   51  119 1    
   103   52   53 2    
   104   52   54 am   BACKBONE|DICT|INTERRES
   105   54   55 1    
   106   54  120 1    
   107   55   56 1    
   108   55   57 1    
   109   55  121 1    
   110   56  122 1    
   111   56  123 1    
   112   56  124 1    
   113   57   58 2    
   114   57   59 am   BACKBONE|DICT|INTERRES
   115   59   60 1    
   116   59  125 1    
   117   60   61 1    
   118   60   62 1    
   119   60  126 1    
   120   61  127 1    
   121   61  128 1    
   122   61  129 1    
   123   62   63 2    
   124   62   64 am   BACKBONE|DICT|INTERRES
   125   64   65 1    
   126   64  130 1    
   127   65   66 1    
   128   65   69 1    
   129   65  131 1    
   130   66   67 am   BACKBONE|DICT|INTERRES
   131   66   68 2    
   132   67  132 1    
   133   67  133 1    
   134   69   70 1    
   135   69  134 1    
   136   69  135 1    
   137   70   71 1    
   138   71  136 1    
   139   71  137 1    
@<TRIPOS>SUBSTRUCTURE
     1 UNK         1 GROUP             0       ****    0 ROOT    
