@<TRIPOS>MOLECULE
3R137
137   139    1
SMALL
USER_CHARGES


@<TRIPOS>ATOM
      1 CA         26.3201   -0.3134    2.6746 C.3       0 UNK        -0.2020 
      2 C          26.8422   -1.4938    1.8681 C.2       0 UNK         0.4855 
      3 O          26.6373   -2.6385    2.2733 O.2       0 UNK        -0.5197 
      4 N          27.5145   -1.2078    0.7433 N.am      1 UNK        -0.4892 
      5 CA         28.0941   -2.1490   -0.2306 C.3       1 UNK         0.0835 
      6 C6         29.0988   -3.1657    0.3851 C.3       12 UNK        -0.0855 
      7 S7         30.5138   -2.3299    1.1822 S.3       12 UNK        -0.2931 
      8 C8         31.8766   -2.6945    0.0261 C.3       12 UNK         0.0378 
      9 C9         31.6067   -2.1855   -1.3848 C.ar      12 UNK        -0.0802 
     10 C10        31.5704   -3.0802   -2.4599 C.ar      12 UNK        -0.0944 
     11 C11        31.3389   -2.6187   -3.7589 C.ar      12 UNK        -0.0787 
     12 C12        31.1260   -1.2549   -3.9778 C.ar      12 UNK        -0.0862 
     13 C13        31.1631   -0.3507   -2.9122 C.ar      12 UNK        -0.0733 
     14 C14        31.4137   -0.8198   -1.6196 C.ar      12 UNK        -0.0832 
     15 C15        30.9428    1.1342   -3.1631 C.3       12 UNK         0.0240 
     16 S16        29.3081    1.7094   -2.5949 S.3       12 UNK        -0.2522 
     17 C17        28.1636    0.6329   -3.5200 C.3       12 UNK        -0.0967 
     18 CA         27.9972    1.0271   -5.0103 C.3       5 UNK         0.0660 
     19 N          27.5971   -0.1246   -5.8217 N.am      5 UNK        -0.4015 
     20 C          27.6059   -0.1602   -7.1625 C.2       4 UNK         0.4946 
     21 O          27.9921    0.7729   -7.8619 O.2       4 UNK        -0.5353 
     22 CA         27.0626   -1.4250   -7.8543 C.3       4 UNK         0.0277 
     23 CB         28.2113   -2.4007   -8.1428 C.3       4 UNK        -0.1981 
     24 N          26.0263   -2.1218   -7.0917 N.am      4 UNK        -0.4209 
     25 C          24.8605   -1.5911   -6.6962 C.2       3 UNK         0.4942 
     26 O          24.4734   -0.4700   -7.0275 O.2       3 UNK        -0.5208 
     27 CA         24.0298   -2.4216   -5.6966 C.3       3 UNK         0.0250 
     28 CB         22.9719   -3.2521   -6.4398 C.3       3 UNK        -0.1990 
     29 N          24.8294   -3.3055   -4.8295 N.am      3 UNK        -0.4232 
     30 C          25.8312   -2.8993   -4.0342 C.2       2 UNK         0.4993 
     31 O          26.1989   -1.7252   -3.9614 O.2       2 UNK        -0.5286 
     32 CA         26.6035   -3.9873   -3.2658 C.3       2 UNK         0.0209 
     33 CB         27.4904   -4.7939   -4.2311 C.3       2 UNK        -0.1931 
     34 N          27.4633   -3.4088   -2.2281 N.am      2 UNK        -0.4546 
     35 C          27.0199   -2.8486   -1.0945 C.2       1 UNK         0.5154 
     36 O          25.8331   -2.8634   -0.7555 O.2       1 UNK        -0.5181 
     37 C          27.0208    2.2067   -5.1890 C.2       5 UNK         0.5014 
     38 O          27.4654    3.3459   -5.3331 O.2       5 UNK        -0.5248 
     39 N          25.7126    1.9084   -5.2315 N.am      6 UNK        -0.4434 
     40 CA         24.6509    2.8822   -5.5023 C.3       6 UNK         0.0363 
     41 CB         23.2857    2.2760   -5.1398 C.3       6 UNK        -0.1936 
     42 C          24.6631    3.3733   -6.9605 C.2       6 UNK         0.5081 
     43 O          24.3762    4.5446   -7.2070 O.2       6 UNK        -0.5248 
     44 N          25.0259    2.4829   -7.8948 N.am      7 UNK        -0.4718 
     45 CA         25.2267    2.7969   -9.3138 C.3       7 UNK         0.0273 
     46 CB         25.1876    1.4899  -10.1223 C.3       7 UNK        -0.1935 
     47 C          26.5361    3.5614   -9.6008 C.2       7 UNK         0.5018 
     48 O          26.6856    4.0845  -10.7058 O.2       7 UNK        -0.5186 
     49 N          27.4538    3.5951   -8.6221 N.am      8 UNK        -0.4240 
     50 CA         28.8133    4.1451   -8.6728 C.3       8 UNK         0.0235 
     51 CB         28.7879    5.6762   -8.8685 C.3       8 UNK        -0.2000 
     52 C          29.7131    3.4125   -9.6894 C.2       8 UNK         0.4941 
     53 O          30.4879    4.0533  -10.4032 O.2       8 UNK        -0.5273 
     54 N          29.5936    2.0806   -9.7321 N.am      9 UNK        -0.4262 
     55 CA         30.3807    1.1791  -10.5691 C.3       9 UNK         0.0264 
     56 CB         29.4234    0.1885  -11.2527 C.3       9 UNK        -0.1955 
     57 C          31.3990    0.4265   -9.7019 C.2       9 UNK         0.5031 
     58 O          31.1483    0.1883   -8.5173 O.2       9 UNK        -0.5390 
     59 N          32.5160    0.0141  -10.3148 N.am      10 UNK        -0.4204 
     60 CA         33.6218   -0.7118   -9.6762 C.3       10 UNK         0.0237 
     61 CB         34.9011   -0.5002  -10.5088 C.3       10 UNK        -0.1985 
     62 C          33.3068   -2.2050   -9.4391 C.2       10 UNK         0.4970 
     63 O          34.0707   -3.0728   -9.8656 O.2       10 UNK        -0.4914 
     64 N          32.1779   -2.4687   -8.7718 N.am      11 UNK        -0.4285 
     65 CA         31.6628   -3.7946   -8.3849 C.3       11 UNK         0.1007 
     66 C          31.2668   -4.7267   -9.5707 C.2       11 UNK         0.5703 
     67 N          31.0793   -4.2121  -10.7803 N.am      11 UNK        -0.7361 
     68 O          31.0881   -5.9288   -9.3888 O.2       11 UNK        -0.4986 
     69 C69        32.5363   -4.5095   -7.3123 C.3       12 UNK        -0.0947 
     70 S70        32.8975   -3.4627   -5.8622 S.3       12 UNK        -0.2240 
     71 C71        31.3373   -3.5825   -4.9342 C.3       12 UNK         0.0194 
     72 H72        26.7411   -0.3306    3.6796 H         1 UNK         0.0906 
     73 H73        26.5766    0.6420    2.2171 H         1 UNK         0.0906 
     74 H74        25.2350   -0.3678    2.7589 H         1 UNK         0.0906 
     75 H75        27.6182   -0.2358    0.4876 H         1 UNK         0.3140 
     76 H76        28.6529   -1.5187   -0.9248 H         1 UNK         0.1085 
     77 H77        29.4806   -3.8487   -0.3754 H         1 UNK         0.0836 
     78 H78        28.6112   -3.8032    1.1233 H         1 UNK         0.0836 
     79 H79        32.0589   -3.7704    0.0250 H         1 UNK         0.0731 
     80 H80        32.7901   -2.2307    0.4009 H         1 UNK         0.0731 
     81 H81        31.7371   -4.1352   -2.2892 H         1 UNK         0.1312 
     82 H82        30.9455   -0.8975   -4.9831 H         1 UNK         0.1406 
     83 H83        31.4447   -0.1233   -0.7923 H         1 UNK         0.1631 
     84 H84        31.0595    1.3682   -4.2222 H         1 UNK         0.0717 
     85 H85        31.7141    1.7046   -2.6435 H         1 UNK         0.0717 
     86 H86        28.5227   -0.3926   -3.4352 H         1 UNK         0.0934 
     87 H87        27.2011    0.6293   -3.0043 H         1 UNK         0.0934 
     88 H88        28.9668    1.3486   -5.3957 H         1 UNK         0.0739 
     89 H89        27.1913   -0.9002   -5.3037 H         1 UNK         0.3093 
     90 H90        26.6240   -1.1191   -8.8051 H         1 UNK         0.0818 
     91 H91        28.6254   -2.8063   -7.2196 H         1 UNK         0.0819 
     92 H92        27.8806   -3.2354   -8.7612 H         1 UNK         0.0819 
     93 H93        29.0229   -1.9044   -8.6763 H         1 UNK         0.0819 
     94 H94        26.2456   -3.0555   -6.7786 H         1 UNK         0.3041 
     95 H95        23.5130   -1.7124   -5.0466 H         1 UNK         0.0784 
     96 H96        22.3515   -2.6163   -7.0734 H         1 UNK         0.0793 
     97 H97        23.4275   -4.0067   -7.0823 H         1 UNK         0.0793 
     98 H98        22.3043   -3.7604   -5.7438 H         1 UNK         0.0793 
     99 H99        24.5910   -4.2872   -4.8483 H         1 UNK         0.3024 
    100 H100       25.8810   -4.6548   -2.7904 H         1 UNK         0.1171 
    101 H101       28.0540   -5.5630   -3.7022 H         1 UNK         0.0786 
    102 H102       26.8936   -5.3025   -4.9893 H         1 UNK         0.0786 
    103 H103       28.2051   -4.1556   -4.7521 H         1 UNK         0.0786 
    104 H104       28.4433   -3.3291   -2.4567 H         1 UNK         0.2977 
    105 H105       25.4314    0.9411   -5.1476 H         1 UNK         0.3127 
    106 H106       24.8174    3.7500   -4.8602 H         1 UNK         0.0770 
    107 H107       23.0520    1.4038   -5.7510 H         1 UNK         0.0814 
    108 H108       22.4864    3.0023   -5.2929 H         1 UNK         0.0814 
    109 H109       23.2505    1.9727   -4.0934 H         1 UNK         0.0814 
    110 H110       25.1784    1.5218   -7.6105 H         1 UNK         0.2983 
    111 H111       24.4001    3.4295   -9.6448 H         1 UNK         0.0947 
    112 H112       25.2062    1.6952  -11.1934 H         1 UNK         0.0806 
    113 H113       24.2832    0.9169   -9.9165 H         1 UNK         0.0806 
    114 H114       26.0469    0.8575   -9.9014 H         1 UNK         0.0806 
    115 H115       27.2301    3.0904   -7.7742 H         1 UNK         0.3000 
    116 H116       29.2497    3.9482   -7.6922 H         1 UNK         0.0850 
    117 H117       29.7883    6.0987   -8.7679 H         1 UNK         0.0810 
    118 H118       28.1561    6.1598   -8.1235 H         1 UNK         0.0810 
    119 H119       28.4170    5.9538   -9.8555 H         1 UNK         0.0810 
    120 H120       28.9921    1.6233   -9.0442 H         1 UNK         0.3040 
    121 H121       30.9162    1.7402  -11.3378 H         1 UNK         0.0766 
    122 H122       29.9663   -0.5214  -11.8778 H         1 UNK         0.0812 
    123 H123       28.8485   -0.3852  -10.5255 H         1 UNK         0.0812 
    124 H124       28.7140    0.7097  -11.8960 H         1 UNK         0.0812 
    125 H125       32.6248    0.2110  -11.2998 H         1 UNK         0.3205 
    126 H126       33.7967   -0.2716   -8.6919 H         1 UNK         0.0754 
    127 H127       35.7606   -0.9766  -10.0349 H         1 UNK         0.0769 
    128 H128       35.1385    0.5591  -10.6098 H         1 UNK         0.0769 
    129 H129       34.8058   -0.9208  -11.5107 H         1 UNK         0.0769 
    130 H130       31.6259   -1.6680   -8.4763 H         1 UNK         0.2981 
    131 H131       30.7102   -3.5855   -7.9061 H         1 UNK         0.0541 
    132 H132       31.2245   -3.2303  -10.9466 H         1 UNK         0.3459 
    133 H133       30.8120   -4.8203  -11.5379 H         1 UNK         0.3459 
    134 H134       32.0497   -5.4204   -6.9592 H         1 UNK         0.0612 
    135 H135       33.4866   -4.8222   -7.7476 H         1 UNK         0.0612 
    136 H136       30.4982   -3.3471   -5.5887 H         1 UNK         0.0624 
    137 H137       31.1931   -4.6099   -4.5962 H         1 UNK         0.0624 
@<TRIPOS>BOND
     1    1    2 1    
     2    1   72 1    
     3    1   73 1    
     4    1   74 1    
     5    2    3 2    
     6    2    4 am   BACKBONE|DICT|INTERRES
     7    4    5 1    
     8    4   75 1    
     9    5    6 1    
    10    5   35 1    
    11    5   76 1    
    12    6    7 1    
    13    6   77 1    
    14    6   78 1    
    15    7    8 1    
    16    8    9 1    
    17    8   79 1    
    18    8   80 1    
    19    9   10 ar   
    20    9   14 ar   
    21   10   11 ar   
    22   10   81 1    
    23   11   12 ar   
    24   11   71 1    
    25   12   13 ar   
    26   12   82 1    
    27   13   14 ar   
    28   13   15 1    
    29   14   83 1    
    30   15   16 1    
    31   15   84 1    
    32   15   85 1    
    33   16   17 1    
    34   17   18 1    
    35   17   86 1    
    36   17   87 1    
    37   18   19 1    
    38   18   37 1    
    39   18   88 1    
    40   19   20 am   BACKBONE|DICT|INTERRES
    41   19   89 1    
    42   20   21 2    
    43   20   22 1    
    44   22   23 1    
    45   22   24 1    
    46   22   90 1    
    47   23   91 1    
    48   23   92 1    
    49   23   93 1    
    50   24   25 am   BACKBONE|DICT|INTERRES
    51   24   94 1    
    52   25   26 2    
    53   25   27 1    
    54   27   28 1    
    55   27   29 1    
    56   27   95 1    
    57   28   96 1    
    58   28   97 1    
    59   28   98 1    
    60   29   30 am   BACKBONE|DICT|INTERRES
    61   29   99 1    
    62   30   31 2    
    63   30   32 1    
    64   32   33 1    
    65   32   34 1    
    66   32  100 1    
    67   33  101 1    
    68   33  102 1    
    69   33  103 1    
    70   34   35 am   BACKBONE|DICT|INTERRES
    71   34  104 1    
    72   35   36 2    
    73   37   38 2    
    74   37   39 am   BACKBONE|DICT|INTERRES
    75   39   40 1    
    76   39  105 1    
    77   40   41 1    
    78   40   42 1    
    79   40  106 1    
    80   41  107 1    
    81   41  108 1    
    82   41  109 1    
    83   42   43 2    
    84   42   44 am   BACKBONE|DICT|INTERRES
    85   44   45 1    
    86   44  110 1    
    87   45   46 1    
    88   45   47 1    
    89   45  111 1    
    90   46  112 1    
    91   46  113 1    
    92   46  114 1    
    93   47   48 2    
    94   47   49 am   BACKBONE|DICT|INTERRES
    95   49   50 1    
    96   49  115 1    
    97   50   51 1    
    98   50   52 1    
    99   50  116 1    
   100   51  117 1    
   101   51  118 1    
   102   51  119 1    
   103   52   53 2    
   104   52   54 am   BACKBONE|DICT|INTERRES
   105   54   55 1    
   106   54  120 1    
   107   55   56 1    
   108   55   57 1    
   109   55  121 1    
   110   56  122 1    
   111   56  123 1    
   112   56  124 1    
   113   57   58 2    
   114   57   59 am   BACKBONE|DICT|INTERRES
   115   59   60 1    
   116   59  125 1    
   117   60   61 1    
   118   60   62 1    
   119   60  126 1    
   120   61  127 1    
   121   61  128 1    
   122   61  129 1    
   123   62   63 2    
   124   62   64 am   BACKBONE|DICT|INTERRES
   125   64   65 1    
   126   64  130 1    
   127   65   66 1    
   128   65   69 1    
   129   65  131 1    
   130   66   67 am   BACKBONE|DICT|INTERRES
   131   66   68 2    
   132   67  132 1    
   133   67  133 1    
   134   69   70 1    
   135   69  134 1    
   136   69  135 1    
   137   70   71 1    
   138   71  136 1    
   139   71  137 1    
@<TRIPOS>SUBSTRUCTURE
     1 UNK         1 GROUP             0       ****    0 ROOT    
