@<TRIPOS>MOLECULE
3R137
137   139    1
SMALL
USER_CHARGES


@<TRIPOS>ATOM
      1 CA         30.7941    0.4267    2.6043 C.3       0 UNK        -0.2020 
      2 C          30.5296    0.2012    1.1230 C.2       0 UNK         0.4855 
      3 O          31.2864    0.6899    0.2843 O.2       0 UNK        -0.5197 
      4 N          29.4603   -0.5285    0.7963 N.am      1 UNK        -0.4892 
      5 CA         29.0210   -0.8456   -0.5617 C.3       1 UNK         0.0835 
      6 C6         29.8948   -1.9370   -1.2417 C.3       12 UNK        -0.0855 
      7 S7         29.8285   -3.5707   -0.4212 S.3       12 UNK        -0.2931 
      8 C8         31.1306   -4.4808   -1.3151 C.3       12 UNK         0.0378 
      9 C9         30.9229   -4.4998   -2.8260 C.ar      12 UNK        -0.0802 
     10 C10        31.9610   -4.1051   -3.6751 C.ar      12 UNK        -0.0944 
     11 C11        31.7899   -4.1207   -5.0623 C.ar      12 UNK        -0.0787 
     12 C12        30.5732   -4.5459   -5.6012 C.ar      12 UNK        -0.0862 
     13 C13        29.5169   -4.9147   -4.7642 C.ar      12 UNK        -0.0733 
     14 C14        29.7028   -4.9061   -3.3784 C.ar      12 UNK        -0.0832 
     15 C15        28.1689   -5.3039   -5.3505 C.3       12 UNK         0.0240 
     16 S16        27.1009   -3.8457   -5.5747 S.3       12 UNK        -0.2522 
     17 C17        27.5827   -3.2920   -7.2475 C.3       12 UNK        -0.0967 
     18 CA         27.1017   -1.8672   -7.6209 C.3       5 UNK         0.0660 
     19 N          25.6704   -1.6604   -7.3584 N.am      5 UNK        -0.4015 
     20 C          24.9454   -0.5825   -7.6940 C.2       4 UNK         0.4946 
     21 O          25.4328    0.4579   -8.1346 O.2       4 UNK        -0.5353 
     22 CA         23.4141   -0.6735   -7.5623 C.3       4 UNK         0.0277 
     23 CB         22.7840   -0.7664   -8.9617 C.3       4 UNK        -0.1981 
     24 N          22.9700   -1.8263   -6.7716 N.am      4 UNK        -0.4209 
     25 C          22.8488   -1.9093   -5.4392 C.2       3 UNK         0.4942 
     26 O          22.5143   -2.9618   -4.8943 O.2       3 UNK        -0.5208 
     27 CA         23.0752   -0.6622   -4.5586 C.3       3 UNK         0.0250 
     28 CB         21.7378    0.0334   -4.2568 C.3       3 UNK        -0.1990 
     29 N          23.7122   -1.0490   -3.3016 N.am      3 UNK        -0.4232 
     30 C          25.0265   -1.2611   -3.1843 C.2       2 UNK         0.4993 
     31 O          25.8361   -1.0537   -4.0920 O.2       2 UNK        -0.5286 
     32 CA         25.5167   -1.8093   -1.8424 C.3       2 UNK         0.0209 
     33 CB         25.3658   -3.3402   -1.7886 C.3       2 UNK        -0.1931 
     34 N          26.9229   -1.4549   -1.6799 N.am      2 UNK        -0.4546 
     35 C          27.5220   -1.2040   -0.5121 C.2       1 UNK         0.5154 
     36 O          26.9386   -1.2534    0.5767 O.2       1 UNK        -0.5181 
     37 C          28.0450   -0.7643   -7.0966 C.2       5 UNK         0.5014 
     38 O          29.0269   -0.4587   -7.7772 O.2       5 UNK        -0.5248 
     39 N          27.7128   -0.1282   -5.9640 N.am      6 UNK        -0.4434 
     40 CA         28.4264    1.0392   -5.4331 C.3       6 UNK         0.0363 
     41 CB         27.7989    1.4802   -4.1026 C.3       6 UNK        -0.1936 
     42 C          28.4992    2.2295   -6.4081 C.2       6 UNK         0.5081 
     43 O          29.4927    2.9564   -6.3848 O.2       6 UNK        -0.5248 
     44 N          27.4747    2.3870   -7.2558 N.am      7 UNK        -0.4718 
     45 CA         27.4278    3.3811   -8.3246 C.3       7 UNK         0.0273 
     46 CB         26.0320    4.0257   -8.3604 C.3       7 UNK        -0.1935 
     47 C          27.7653    2.7426   -9.6788 C.2       7 UNK         0.5018 
     48 O          28.6122    3.2713  -10.3976 O.2       7 UNK        -0.5186 
     49 N          27.1086    1.6190  -10.0030 N.am      8 UNK        -0.4240 
     50 CA         27.1623    0.9581  -11.3112 C.3       8 UNK         0.0235 
     51 CB         26.0726   -0.1234  -11.3903 C.3       8 UNK        -0.2000 
     52 C          28.5369    0.3739  -11.6732 C.2       8 UNK         0.4941 
     53 O          28.9230    0.4427  -12.8406 O.2       8 UNK        -0.5273 
     54 N          29.2544   -0.1663  -10.6794 N.am      9 UNK        -0.4262 
     55 CA         30.6336   -0.6453  -10.8165 C.3       9 UNK         0.0264 
     56 CB         30.7354   -2.0614  -10.2212 C.3       9 UNK        -0.1955 
     57 C          31.6369    0.3215  -10.1581 C.2       9 UNK         0.5031 
     58 O          32.8320    0.0239  -10.1439 O.2       9 UNK        -0.5390 
     59 N          31.1410    1.4553   -9.6350 N.am      10 UNK        -0.4204 
     60 CA         31.8643    2.5229   -8.9349 C.3       10 UNK         0.0237 
     61 CB         32.7949    3.2769   -9.9089 C.3       10 UNK        -0.1985 
     62 C          32.5881    2.0524   -7.6563 C.2       10 UNK         0.4970 
     63 O          33.6205    2.6234   -7.2984 O.2       10 UNK        -0.4914 
     64 N          32.0431    1.0261   -6.9891 N.am      11 UNK        -0.4285 
     65 CA         32.6067    0.4467   -5.7597 C.3       11 UNK         0.1007 
     66 C          32.4601    1.3356   -4.4899 C.2       11 UNK         0.5703 
     67 N          31.6365    2.3775   -4.4858 N.am      11 UNK        -0.7361 
     68 O          33.1244    1.0798   -3.4889 O.2       11 UNK        -0.4986 
     69 C69        32.0773   -0.9865   -5.5033 C.3       12 UNK        -0.0947 
     70 S70        32.4533   -2.1302   -6.8746 S.3       12 UNK        -0.2240 
     71 C71        32.9092   -3.6499   -5.9800 C.3       12 UNK         0.0194 
     72 H72        30.0432   -0.0552    3.2305 H         1 UNK         0.0906 
     73 H73        31.7701    0.0252    2.8760 H         1 UNK         0.0906 
     74 H74        30.7894    1.4931    2.8287 H         1 UNK         0.0906 
     75 H75        28.8238   -0.8722    1.5066 H         1 UNK         0.3140 
     76 H76        29.0960    0.0698   -1.1530 H         1 UNK         0.1085 
     77 H77        29.5983   -2.0586   -2.2850 H         1 UNK         0.0836 
     78 H78        30.9348   -1.6087   -1.2749 H         1 UNK         0.0836 
     79 H79        31.1564   -5.5083   -0.9502 H         1 UNK         0.0731 
     80 H80        32.0959   -4.0398   -1.0614 H         1 UNK         0.0731 
     81 H81        32.9024   -3.7765   -3.2562 H         1 UNK         0.1312 
     82 H82        30.4455   -4.5581   -6.6742 H         1 UNK         0.1406 
     83 H83        28.8899   -5.1947   -2.7256 H         1 UNK         0.1631 
     84 H84        27.6648   -6.0061   -4.6849 H         1 UNK         0.0717 
     85 H85        28.2976   -5.8253   -6.3003 H         1 UNK         0.0717 
     86 H86        28.6636   -3.3684   -7.3676 H         1 UNK         0.0934 
     87 H87        27.1635   -4.0075   -7.9567 H         1 UNK         0.0934 
     88 H88        27.1945   -1.8024   -8.7062 H         1 UNK         0.0739 
     89 H89        25.1933   -2.4452   -6.9397 H         1 UNK         0.3093 
     90 H90        23.0554    0.2549   -7.1161 H         1 UNK         0.0818 
     91 H91        21.6954   -0.7915   -8.9064 H         1 UNK         0.0819 
     92 H92        23.0533    0.0986   -9.5698 H         1 UNK         0.0819 
     93 H93        23.1140   -1.6565   -9.4992 H         1 UNK         0.0819 
     94 H94        22.7638   -2.6588   -7.3051 H         1 UNK         0.3041 
     95 H95        23.7318    0.0548   -5.0514 H         1 UNK         0.0784 
     96 H96        21.2539    0.3640   -5.1768 H         1 UNK         0.0793 
     97 H97        21.0417   -0.6319   -3.7440 H         1 UNK         0.0793 
     98 H98        21.8811    0.9153   -3.6321 H         1 UNK         0.0793 
     99 H99        23.0981   -1.2946   -2.5385 H         1 UNK         0.3024 
    100 H100       24.9246   -1.3509   -1.0466 H         1 UNK         0.1171 
    101 H101       25.6992   -3.7381   -0.8300 H         1 UNK         0.0786 
    102 H102       24.3252   -3.6392   -1.9206 H         1 UNK         0.0786 
    103 H103       25.9477   -3.8273   -2.5726 H         1 UNK         0.0786 
    104 H104       27.4270   -1.3647   -2.5528 H         1 UNK         0.2977 
    105 H105       26.9176   -0.4685   -5.4222 H         1 UNK         0.3127 
    106 H106       29.4501    0.7253   -5.2326 H         1 UNK         0.0770 
    107 H107       26.7442    1.7326   -4.2190 H         1 UNK         0.0814 
    108 H108       28.3056    2.3595   -3.7022 H         1 UNK         0.0814 
    109 H109       27.8762    0.6966   -3.3515 H         1 UNK         0.0814 
    110 H110       26.7253    1.7021   -7.2441 H         1 UNK         0.2983 
    111 H111       28.1575    4.1727   -8.1383 H         1 UNK         0.0947 
    112 H112       25.9632    4.7640   -9.1605 H         1 UNK         0.0806 
    113 H113       25.8130    4.5409   -7.4251 H         1 UNK         0.0806 
    114 H114       25.2451    3.2886   -8.5264 H         1 UNK         0.0806 
    115 H115       26.4443    1.2359   -9.3300 H         1 UNK         0.3000 
    116 H116       26.9314    1.7174  -12.0617 H         1 UNK         0.0850 
    117 H117       26.0605   -0.5938  -12.3744 H         1 UNK         0.0810 
    118 H118       25.0821    0.2998  -11.2227 H         1 UNK         0.0810 
    119 H119       26.2275   -0.9121  -10.6551 H         1 UNK         0.0810 
    120 H120       28.8793   -0.1834   -9.7351 H         1 UNK         0.3040 
    121 H121       30.9126   -0.7101  -11.8701 H         1 UNK         0.0766 
    122 H122       30.4973   -2.0751   -9.1584 H         1 UNK         0.0812 
    123 H123       31.7441   -2.4617  -10.3306 H         1 UNK         0.0812 
    124 H124       30.0577   -2.7511  -10.7239 H         1 UNK         0.0812 
    125 H125       30.1497    1.6173   -9.7488 H         1 UNK         0.3205 
    126 H126       31.1028    3.2292   -8.6014 H         1 UNK         0.0754 
    127 H127       33.2264    4.1600   -9.4361 H         1 UNK         0.0769 
    128 H128       32.2518    3.6176  -10.7904 H         1 UNK         0.0769 
    129 H129       33.6218    2.6502  -10.2446 H         1 UNK         0.0769 
    130 H130       31.1991    0.5965   -7.3433 H         1 UNK         0.2981 
    131 H131       33.6829    0.3574   -5.9208 H         1 UNK         0.0541 
    132 H132       31.0638    2.6014   -5.2932 H         1 UNK         0.3459 
    133 H133       31.5732    2.9441   -3.6559 H         1 UNK         0.3459 
    134 H134       30.9978   -0.9866   -5.3481 H         1 UNK         0.0612 
    135 H135       32.5171   -1.3857   -4.5879 H         1 UNK         0.0612 
    136 H136       33.1362   -4.4332   -6.7043 H         1 UNK         0.0624 
    137 H137       33.8276   -3.4701   -5.4191 H         1 UNK         0.0624 
@<TRIPOS>BOND
     1    1    2 1    
     2    1   72 1    
     3    1   73 1    
     4    1   74 1    
     5    2    3 2    
     6    2    4 am   BACKBONE|DICT|INTERRES
     7    4    5 1    
     8    4   75 1    
     9    5    6 1    
    10    5   35 1    
    11    5   76 1    
    12    6    7 1    
    13    6   77 1    
    14    6   78 1    
    15    7    8 1    
    16    8    9 1    
    17    8   79 1    
    18    8   80 1    
    19    9   10 ar   
    20    9   14 ar   
    21   10   11 ar   
    22   10   81 1    
    23   11   12 ar   
    24   11   71 1    
    25   12   13 ar   
    26   12   82 1    
    27   13   14 ar   
    28   13   15 1    
    29   14   83 1    
    30   15   16 1    
    31   15   84 1    
    32   15   85 1    
    33   16   17 1    
    34   17   18 1    
    35   17   86 1    
    36   17   87 1    
    37   18   19 1    
    38   18   37 1    
    39   18   88 1    
    40   19   20 am   BACKBONE|DICT|INTERRES
    41   19   89 1    
    42   20   21 2    
    43   20   22 1    
    44   22   23 1    
    45   22   24 1    
    46   22   90 1    
    47   23   91 1    
    48   23   92 1    
    49   23   93 1    
    50   24   25 am   BACKBONE|DICT|INTERRES
    51   24   94 1    
    52   25   26 2    
    53   25   27 1    
    54   27   28 1    
    55   27   29 1    
    56   27   95 1    
    57   28   96 1    
    58   28   97 1    
    59   28   98 1    
    60   29   30 am   BACKBONE|DICT|INTERRES
    61   29   99 1    
    62   30   31 2    
    63   30   32 1    
    64   32   33 1    
    65   32   34 1    
    66   32  100 1    
    67   33  101 1    
    68   33  102 1    
    69   33  103 1    
    70   34   35 am   BACKBONE|DICT|INTERRES
    71   34  104 1    
    72   35   36 2    
    73   37   38 2    
    74   37   39 am   BACKBONE|DICT|INTERRES
    75   39   40 1    
    76   39  105 1    
    77   40   41 1    
    78   40   42 1    
    79   40  106 1    
    80   41  107 1    
    81   41  108 1    
    82   41  109 1    
    83   42   43 2    
    84   42   44 am   BACKBONE|DICT|INTERRES
    85   44   45 1    
    86   44  110 1    
    87   45   46 1    
    88   45   47 1    
    89   45  111 1    
    90   46  112 1    
    91   46  113 1    
    92   46  114 1    
    93   47   48 2    
    94   47   49 am   BACKBONE|DICT|INTERRES
    95   49   50 1    
    96   49  115 1    
    97   50   51 1    
    98   50   52 1    
    99   50  116 1    
   100   51  117 1    
   101   51  118 1    
   102   51  119 1    
   103   52   53 2    
   104   52   54 am   BACKBONE|DICT|INTERRES
   105   54   55 1    
   106   54  120 1    
   107   55   56 1    
   108   55   57 1    
   109   55  121 1    
   110   56  122 1    
   111   56  123 1    
   112   56  124 1    
   113   57   58 2    
   114   57   59 am   BACKBONE|DICT|INTERRES
   115   59   60 1    
   116   59  125 1    
   117   60   61 1    
   118   60   62 1    
   119   60  126 1    
   120   61  127 1    
   121   61  128 1    
   122   61  129 1    
   123   62   63 2    
   124   62   64 am   BACKBONE|DICT|INTERRES
   125   64   65 1    
   126   64  130 1    
   127   65   66 1    
   128   65   69 1    
   129   65  131 1    
   130   66   67 am   BACKBONE|DICT|INTERRES
   131   66   68 2    
   132   67  132 1    
   133   67  133 1    
   134   69   70 1    
   135   69  134 1    
   136   69  135 1    
   137   70   71 1    
   138   71  136 1    
   139   71  137 1    
@<TRIPOS>SUBSTRUCTURE
     1 UNK         1 GROUP             0       ****    0 ROOT    
