@<TRIPOS>MOLECULE
3R137
137   139    1
SMALL
USER_CHARGES


@<TRIPOS>ATOM
      1 CA         29.4884    1.6851   -0.5901 C.3       0 UNK        -0.2020 
      2 C          28.8123    0.4138   -0.0990 C.2       0 UNK         0.4855 
      3 O          28.3935    0.3515    1.0563 O.2       0 UNK        -0.5197 
      4 N          28.6985   -0.5960   -0.9739 N.am      1 UNK        -0.4892 
      5 CA         28.1289   -1.9283   -0.7093 C.3       1 UNK         0.0835 
      6 C6         28.8877   -2.6842    0.4222 C.3       12 UNK        -0.0855 
      7 S7         29.0536   -4.4763    0.1157 S.3       12 UNK        -0.2931 
      8 C8         30.6673   -4.5622   -0.7276 C.3       12 UNK         0.0378 
      9 C9         30.5891   -4.0010   -2.1399 C.ar      12 UNK        -0.0802 
     10 C10        31.1061   -2.7349   -2.4321 C.ar      12 UNK        -0.0944 
     11 C11        31.0088   -2.2111   -3.7247 C.ar      12 UNK        -0.0787 
     12 C12        30.3961   -2.9685   -4.7283 C.ar      12 UNK        -0.0862 
     13 C13        29.8859   -4.2393   -4.4522 C.ar      12 UNK        -0.0733 
     14 C14        29.9850   -4.7496   -3.1546 C.ar      12 UNK        -0.0832 
     15 C15        29.2424   -5.0689   -5.5548 C.3       12 UNK         0.0240 
     16 S16        27.6991   -4.3177   -6.1680 S.3       12 UNK        -0.2522 
     17 C17        28.1786   -3.7468   -7.8404 C.3       12 UNK        -0.0967 
     18 CA         27.6167   -2.3530   -8.2199 C.3       5 UNK         0.0660 
     19 N          26.1681   -2.2732   -8.0088 N.am      5 UNK        -0.4015 
     20 C          25.3746   -1.2744   -8.4141 C.2       4 UNK         0.4946 
     21 O          25.7728   -0.3097   -9.0667 O.2       4 UNK        -0.5353 
     22 CA         23.9079   -1.3130   -7.9492 C.3       4 UNK         0.0277 
     23 CB         23.0342   -2.0124   -9.0020 C.3       4 UNK        -0.1981 
     24 N          23.6900   -1.9353   -6.6345 N.am      4 UNK        -0.4209 
     25 C          24.2946   -1.5751   -5.4930 C.2       3 UNK         0.4942 
     26 O          25.1869   -0.7242   -5.4262 O.2       3 UNK        -0.5208 
     27 CA         23.8523   -2.3061   -4.2206 C.3       3 UNK         0.0250 
     28 CB         24.4264   -3.7332   -4.1654 C.3       3 UNK        -0.1990 
     29 N          24.3332   -1.5467   -3.0724 N.am      3 UNK        -0.4232 
     30 C          23.7559   -1.4731   -1.8690 C.2       2 UNK         0.4993 
     31 O          22.7193   -2.0683   -1.5673 O.2       2 UNK        -0.5286 
     32 CA         24.4770   -0.5815   -0.8378 C.3       2 UNK         0.0209 
     33 CB         23.8915   -0.7001    0.5865 C.3       2 UNK        -0.1931 
     34 N          25.9323   -0.7990   -0.8326 N.am      2 UNK        -0.4546 
     35 C          26.5885   -1.9343   -0.5358 C.2       1 UNK         0.5154 
     36 O          26.0238   -2.9669   -0.1727 O.2       1 UNK        -0.5181 
     37 C          28.4187   -1.2106   -7.5557 C.2       5 UNK         0.5014 
     38 O          29.5387   -0.9517   -7.9945 O.2       5 UNK        -0.5248 
     39 N          27.8508   -0.5497   -6.5357 N.am      6 UNK        -0.4434 
     40 CA         28.4249    0.6267   -5.8802 C.3       6 UNK         0.0363 
     41 CB         28.1889    0.5073   -4.3649 C.3       6 UNK        -0.1936 
     42 C          27.8411    1.9464   -6.4152 C.2       6 UNK         0.5081 
     43 O          28.3512    3.0083   -6.0568 O.2       6 UNK        -0.5248 
     44 N          26.7847    1.8761   -7.2365 N.am      7 UNK        -0.4718 
     45 CA         26.1521    3.0327   -7.8717 C.3       7 UNK         0.0273 
     46 CB         24.6261    2.8424   -7.8771 C.3       7 UNK        -0.1935 
     47 C          26.6773    3.2302   -9.3002 C.2       7 UNK         0.5018 
     48 O          26.9351    4.3666   -9.6980 O.2       7 UNK        -0.5186 
     49 N          26.8208    2.1257  -10.0464 N.am      8 UNK        -0.4240 
     50 CA         27.2592    2.1104  -11.4432 C.3       8 UNK         0.0235 
     51 CB         26.9220    0.7403  -12.0545 C.3       8 UNK        -0.2000 
     52 C          28.7525    2.4247  -11.6361 C.2       8 UNK         0.4941 
     53 O          29.1251    2.9100  -12.7055 O.2       8 UNK        -0.5273 
     54 N          29.5800    2.1347  -10.6259 N.am      9 UNK        -0.4262 
     55 CA         31.0302    2.3045  -10.6370 C.3       9 UNK         0.0264 
     56 CB         31.6807    1.1822  -11.4732 C.3       9 UNK        -0.1955 
     57 C          31.5430    2.2776   -9.1930 C.2       9 UNK         0.5031 
     58 O          30.7876    1.9420   -8.2775 O.2       9 UNK        -0.5390 
     59 N          32.8346    2.5809   -9.0112 N.am      10 UNK        -0.4204 
     60 CA         33.5540    2.4722   -7.7376 C.3       10 UNK         0.0237 
     61 CB         34.7959    3.3827   -7.7837 C.3       10 UNK        -0.1985 
     62 C          33.9042    1.0033   -7.4222 C.2       10 UNK         0.4970 
     63 O          35.0795    0.6337   -7.4164 O.2       10 UNK        -0.4914 
     64 N          32.8610    0.1924   -7.2150 N.am      11 UNK        -0.4285 
     65 CA         32.8929   -1.2612   -6.9812 C.3       11 UNK         0.1007 
     66 C          33.2742   -2.1199   -8.2249 C.2       11 UNK         0.5703 
     67 N          33.3874   -1.5522   -9.4199 N.am      11 UNK        -0.7361 
     68 O          33.4400   -3.3323   -8.1135 O.2       11 UNK        -0.4986 
     69 C69        33.6791   -1.6934   -5.7047 C.3       12 UNK        -0.0947 
     70 S70        33.3395   -0.7450   -4.1789 S.3       12 UNK        -0.2240 
     71 C71        31.5287   -0.8123   -4.0234 C.3       12 UNK         0.0194 
     72 H72        30.2954    1.9647    0.0868 H         1 UNK         0.0906 
     73 H73        29.9132    1.5664   -1.5864 H         1 UNK         0.0906 
     74 H74        28.7709    2.5046   -0.6203 H         1 UNK         0.0906 
     75 H75        29.0678   -0.4755   -1.9055 H         1 UNK         0.3140 
     76 H76        28.2883   -2.4743   -1.6402 H         1 UNK         0.1085 
     77 H77        28.4017   -2.5323    1.3879 H         1 UNK         0.0836 
     78 H78        29.8930   -2.2784    0.5447 H         1 UNK         0.0836 
     79 H79        31.4222   -4.0388   -0.1386 H         1 UNK         0.0731 
     80 H80        30.9867   -5.6045   -0.7715 H         1 UNK         0.0731 
     81 H81        31.5721   -2.1491   -1.6513 H         1 UNK         0.1312 
     82 H82        30.2968   -2.5710   -5.7264 H         1 UNK         0.1406 
     83 H83        29.5850   -5.7285   -2.9266 H         1 UNK         0.1631 
     84 H84        29.0055   -6.0686   -5.1878 H         1 UNK         0.0717 
     85 H85        29.9579   -5.2142   -6.3647 H         1 UNK         0.0717 
     86 H86        29.2645   -3.7593   -7.9535 H         1 UNK         0.0934 
     87 H87        27.8099   -4.4869   -8.5524 H         1 UNK         0.0934 
     88 H88        27.7737   -2.2273   -9.2936 H         1 UNK         0.0739 
     89 H89        25.7672   -3.0123   -7.4499 H         1 UNK         0.3093 
     90 H90        23.5739   -0.2771   -7.8672 H         1 UNK         0.0818 
     91 H91        21.9755   -1.9408   -8.7520 H         1 UNK         0.0819 
     92 H92        23.1632   -1.5536   -9.9836 H         1 UNK         0.0819 
     93 H93        23.2865   -3.0690   -9.1006 H         1 UNK         0.0819 
     94 H94        22.9801   -2.6532   -6.5938 H         1 UNK         0.3041 
     95 H95        22.7608   -2.3423   -4.2077 H         1 UNK         0.0784 
     96 H96        24.1157   -4.3240   -5.0278 H         1 UNK         0.0793 
     97 H97        25.5168   -3.7254   -4.1468 H         1 UNK         0.0793 
     98 H98        24.0856   -4.2600   -3.2738 H         1 UNK         0.0793 
     99 H99        25.1427   -0.9741   -3.2752 H         1 UNK         0.3024 
    100 H100       24.3176    0.4465   -1.1683 H         1 UNK         0.1171 
    101 H101       22.8398   -0.4117    0.6006 H         1 UNK         0.0786 
    102 H102       24.4152   -0.0481    1.2857 H         1 UNK         0.0786 
    103 H103       23.9520   -1.7194    0.9689 H         1 UNK         0.0786 
    104 H104       26.4974   -0.0072   -1.1050 H         1 UNK         0.2977 
    105 H105       26.9196   -0.8145   -6.2226 H         1 UNK         0.3127 
    106 H106       29.4987    0.6679   -6.0649 H         1 UNK         0.0770 
    107 H107       27.1315    0.5956   -4.1140 H         1 UNK         0.0814 
    108 H108       28.7174    1.2960   -3.8284 H         1 UNK         0.0814 
    109 H109       28.5433   -0.4503   -3.9858 H         1 UNK         0.0814 
    110 H110       26.4409    0.9643   -7.5099 H         1 UNK         0.2983 
    111 H111       26.3735    3.9397   -7.3045 H         1 UNK         0.0947 
    112 H112       24.1277    3.7202   -8.2904 H         1 UNK         0.0806 
    113 H113       24.2415    2.6959   -6.8676 H         1 UNK         0.0806 
    114 H114       24.3234    1.9851   -8.4787 H         1 UNK         0.0806 
    115 H115       26.5321    1.2307   -9.6543 H         1 UNK         0.3000 
    116 H116       26.6932    2.8731  -11.9825 H         1 UNK         0.0850 
    117 H117       27.2083    0.6984  -13.1063 H         1 UNK         0.0810 
    118 H118       25.8527    0.5345  -12.0008 H         1 UNK         0.0810 
    119 H119       27.4430   -0.0685  -11.5400 H         1 UNK         0.0810 
    120 H120       29.2109    1.7857   -9.7488 H         1 UNK         0.3040 
    121 H121       31.2728    3.2786  -11.0668 H         1 UNK         0.0766 
    122 H122       32.7668    1.2750  -11.4964 H         1 UNK         0.0812 
    123 H123       31.3410    1.2077  -12.5086 H         1 UNK         0.0812 
    124 H124       31.4423    0.1963  -11.0715 H         1 UNK         0.0812 
    125 H125       33.3906    2.8304   -9.8170 H         1 UNK         0.3205 
    126 H126       32.9084    2.8332   -6.9337 H         1 UNK         0.0754 
    127 H127       35.3457    3.3399   -6.8425 H         1 UNK         0.0769 
    128 H128       34.5176    4.4242   -7.9466 H         1 UNK         0.0769 
    129 H129       35.4848    3.0912   -8.5777 H         1 UNK         0.0769 
    130 H130       31.9347    0.5930   -7.3334 H         1 UNK         0.2981 
    131 H131       31.8513   -1.5193   -6.8183 H         1 UNK         0.0541 
    132 H132       33.6239   -2.1232  -10.2157 H         1 UNK         0.3459 
    133 H133       33.2555   -0.5612   -9.5258 H         1 UNK         0.3459 
    134 H134       34.7523   -1.6297   -5.8906 H         1 UNK         0.0612 
    135 H135       33.4788   -2.7429   -5.4816 H         1 UNK         0.0612 
    136 H136       31.2289   -0.1390   -3.2196 H         1 UNK         0.0624 
    137 H137       31.0766   -0.4154   -4.9292 H         1 UNK         0.0624 
@<TRIPOS>BOND
     1    1    2 1    
     2    1   72 1    
     3    1   73 1    
     4    1   74 1    
     5    2    3 2    
     6    2    4 am   BACKBONE|DICT|INTERRES
     7    4    5 1    
     8    4   75 1    
     9    5    6 1    
    10    5   35 1    
    11    5   76 1    
    12    6    7 1    
    13    6   77 1    
    14    6   78 1    
    15    7    8 1    
    16    8    9 1    
    17    8   79 1    
    18    8   80 1    
    19    9   10 ar   
    20    9   14 ar   
    21   10   11 ar   
    22   10   81 1    
    23   11   12 ar   
    24   11   71 1    
    25   12   13 ar   
    26   12   82 1    
    27   13   14 ar   
    28   13   15 1    
    29   14   83 1    
    30   15   16 1    
    31   15   84 1    
    32   15   85 1    
    33   16   17 1    
    34   17   18 1    
    35   17   86 1    
    36   17   87 1    
    37   18   19 1    
    38   18   37 1    
    39   18   88 1    
    40   19   20 am   BACKBONE|DICT|INTERRES
    41   19   89 1    
    42   20   21 2    
    43   20   22 1    
    44   22   23 1    
    45   22   24 1    
    46   22   90 1    
    47   23   91 1    
    48   23   92 1    
    49   23   93 1    
    50   24   25 am   BACKBONE|DICT|INTERRES
    51   24   94 1    
    52   25   26 2    
    53   25   27 1    
    54   27   28 1    
    55   27   29 1    
    56   27   95 1    
    57   28   96 1    
    58   28   97 1    
    59   28   98 1    
    60   29   30 am   BACKBONE|DICT|INTERRES
    61   29   99 1    
    62   30   31 2    
    63   30   32 1    
    64   32   33 1    
    65   32   34 1    
    66   32  100 1    
    67   33  101 1    
    68   33  102 1    
    69   33  103 1    
    70   34   35 am   BACKBONE|DICT|INTERRES
    71   34  104 1    
    72   35   36 2    
    73   37   38 2    
    74   37   39 am   BACKBONE|DICT|INTERRES
    75   39   40 1    
    76   39  105 1    
    77   40   41 1    
    78   40   42 1    
    79   40  106 1    
    80   41  107 1    
    81   41  108 1    
    82   41  109 1    
    83   42   43 2    
    84   42   44 am   BACKBONE|DICT|INTERRES
    85   44   45 1    
    86   44  110 1    
    87   45   46 1    
    88   45   47 1    
    89   45  111 1    
    90   46  112 1    
    91   46  113 1    
    92   46  114 1    
    93   47   48 2    
    94   47   49 am   BACKBONE|DICT|INTERRES
    95   49   50 1    
    96   49  115 1    
    97   50   51 1    
    98   50   52 1    
    99   50  116 1    
   100   51  117 1    
   101   51  118 1    
   102   51  119 1    
   103   52   53 2    
   104   52   54 am   BACKBONE|DICT|INTERRES
   105   54   55 1    
   106   54  120 1    
   107   55   56 1    
   108   55   57 1    
   109   55  121 1    
   110   56  122 1    
   111   56  123 1    
   112   56  124 1    
   113   57   58 2    
   114   57   59 am   BACKBONE|DICT|INTERRES
   115   59   60 1    
   116   59  125 1    
   117   60   61 1    
   118   60   62 1    
   119   60  126 1    
   120   61  127 1    
   121   61  128 1    
   122   61  129 1    
   123   62   63 2    
   124   62   64 am   BACKBONE|DICT|INTERRES
   125   64   65 1    
   126   64  130 1    
   127   65   66 1    
   128   65   69 1    
   129   65  131 1    
   130   66   67 am   BACKBONE|DICT|INTERRES
   131   66   68 2    
   132   67  132 1    
   133   67  133 1    
   134   69   70 1    
   135   69  134 1    
   136   69  135 1    
   137   70   71 1    
   138   71  136 1    
   139   71  137 1    
@<TRIPOS>SUBSTRUCTURE
     1 UNK         1 GROUP             0       ****    0 ROOT    
