@<TRIPOS>MOLECULE
3R137
137   139    1
SMALL
USER_CHARGES


@<TRIPOS>ATOM
      1 CA         22.6403   -4.9806   -1.8826 C.3       0 UNK        -0.2020 
      2 C          24.0504   -4.4518   -2.0947 C.2       0 UNK         0.4855 
      3 O          24.3805   -4.0275   -3.2011 O.2       0 UNK        -0.5197 
      4 N          24.8759   -4.4605   -1.0384 N.am      1 UNK        -0.4892 
      5 CA         26.2797   -4.0234   -1.0239 C.3       1 UNK         0.0835 
      6 C6         27.2094   -4.9965   -1.8010 C.3       12 UNK        -0.0855 
      7 S7         28.8472   -5.1415   -1.0157 S.3       12 UNK        -0.2931 
      8 C8         29.9332   -5.3840   -2.4626 C.3       12 UNK         0.0378 
      9 C9         30.3583   -4.1004   -3.1760 C.ar      12 UNK        -0.0802 
     10 C10        30.6082   -4.1395   -4.5518 C.ar      12 UNK        -0.0944 
     11 C11        31.0981   -3.0136   -5.2188 C.ar      12 UNK        -0.0787 
     12 C12        31.3288   -1.8351   -4.5053 C.ar      12 UNK        -0.0862 
     13 C13        31.0674   -1.7695   -3.1338 C.ar      12 UNK        -0.0733 
     14 C14        30.5877   -2.9076   -2.4764 C.ar      12 UNK        -0.0832 
     15 C15        31.3428   -0.4919   -2.3432 C.3       12 UNK         0.0240 
     16 S16        30.6943    1.0234   -3.1310 S.3       12 UNK        -0.2522 
     17 C17        28.9234    0.6243   -3.2929 C.3       12 UNK        -0.0967 
     18 CA         28.5155    0.4143   -4.7759 C.3       5 UNK         0.0660 
     19 N          27.5522   -0.6803   -4.9285 N.am      5 UNK        -0.4015 
     20 C          27.1395   -1.1802   -6.1028 C.2       4 UNK         0.4946 
     21 O          27.5407   -0.7951   -7.1992 O.2       4 UNK        -0.5353 
     22 CA         26.0508   -2.2622   -6.0512 C.3       4 UNK         0.0277 
     23 CB         26.6699   -3.6310   -5.7316 C.3       4 UNK        -0.1981 
     24 N          24.9964   -1.9402   -5.0857 N.am      4 UNK        -0.4209 
     25 C          24.1918   -0.8700   -5.1818 C.2       3 UNK         0.4942 
     26 O          24.2036   -0.0868   -6.1307 O.2       3 UNK        -0.5208 
     27 CA         23.2628   -0.5826   -3.9928 C.3       3 UNK         0.0250 
     28 CB         22.0243   -1.4925   -4.0195 C.3       3 UNK        -0.1990 
     29 N          23.9581   -0.7037   -2.7095 N.am      3 UNK        -0.4232 
     30 C          24.9540    0.1028   -2.3120 C.2       2 UNK         0.4993 
     31 O          25.3638    1.0591   -2.9679 O.2       2 UNK        -0.5286 
     32 CA         25.6364   -0.2302   -0.9755 C.3       2 UNK         0.0209 
     33 CB         24.9207    0.4756    0.1869 C.3       2 UNK        -0.1931 
     34 N          25.7094   -1.6691   -0.7074 N.am      2 UNK        -0.4546 
     35 C          26.4160   -2.5414   -1.4414 C.2       1 UNK         0.5154 
     36 O          27.0793   -2.2123   -2.4271 O.2       1 UNK        -0.5181 
     37 C          28.0353    1.7320   -5.4221 C.2       5 UNK         0.5014 
     38 O          28.8352    2.4312   -6.0439 O.2       5 UNK        -0.5248 
     39 N          26.7416    2.0490   -5.2698 N.am      6 UNK        -0.4434 
     40 CA         26.0945    3.2003   -5.8989 C.3       6 UNK         0.0363 
     41 CB         24.7277    3.4479   -5.2407 C.3       6 UNK        -0.1936 
     42 C          25.9442    3.0353   -7.4205 C.2       6 UNK         0.5081 
     43 O          26.1770    3.9960   -8.1548 O.2       6 UNK        -0.5248 
     44 N          25.5492    1.8343   -7.8666 N.am      7 UNK        -0.4718 
     45 CA         25.3519    1.4980   -9.2785 C.3       7 UNK         0.0273 
     46 CB         24.5964    0.1640   -9.3913 C.3       7 UNK        -0.1935 
     47 C          26.6635    1.4450  -10.0779 C.2       7 UNK         0.5018 
     48 O          26.7094    1.9700  -11.1915 O.2       7 UNK        -0.5186 
     49 N          27.6948    0.8149   -9.5052 N.am      8 UNK        -0.4240 
     50 CA         29.0144    0.6490  -10.1006 C.3       8 UNK         0.0235 
     51 CB         29.2345   -0.8406  -10.4222 C.3       8 UNK        -0.2000 
     52 C          30.0505    1.1924   -9.1126 C.2       8 UNK         0.4941 
     53 O          30.5303    0.4500   -8.2521 O.2       8 UNK        -0.5273 
     54 N          30.3718    2.4867   -9.2510 N.am      9 UNK        -0.4262 
     55 CA         31.3750    3.1981   -8.4531 C.3       9 UNK         0.0264 
     56 CB         31.4448    4.6657   -8.9062 C.3       9 UNK        -0.1955 
     57 C          32.7517    2.5218   -8.5577 C.2       9 UNK         0.5031 
     58 O          33.2810    2.3955   -9.6654 O.2       9 UNK        -0.5390 
     59 N          33.2580    2.0345   -7.4151 N.am      10 UNK        -0.4204 
     60 CA         34.4654    1.2067   -7.2669 C.3       10 UNK         0.0237 
     61 CB         35.7325    2.0449   -7.5418 C.3       10 UNK        -0.1985 
     62 C          34.4291   -0.1007   -8.0924 C.2       10 UNK         0.4970 
     63 O          35.4860   -0.6237   -8.4499 O.2       10 UNK        -0.4914 
     64 N          33.2169   -0.5909   -8.3888 N.am      11 UNK        -0.4285 
     65 CA         32.9188   -1.7358   -9.2620 C.3       11 UNK         0.1007 
     66 C          33.2447   -1.4923  -10.7669 C.2       11 UNK         0.5703 
     67 N          33.4273   -0.2543  -11.2161 N.am      11 UNK        -0.7361 
     68 O          33.2979   -2.4355  -11.5526 O.2       11 UNK        -0.4986 
     69 C69        33.4569   -3.0972   -8.7277 C.3       12 UNK        -0.0947 
     70 S70        33.1915   -3.4097   -6.9455 S.3       12 UNK        -0.2240 
     71 C71        31.4184   -3.0689   -6.7024 C.3       12 UNK         0.0194 
     72 H72        22.4215   -5.7617   -2.6103 H         1 UNK         0.0906 
     73 H73        22.5065   -5.4005   -0.8859 H         1 UNK         0.0906 
     74 H74        21.9138   -4.1795   -2.0146 H         1 UNK         0.0906 
     75 H75        24.5295   -4.8119   -0.1555 H         1 UNK         0.3140 
     76 H76        26.5685   -4.0580    0.0283 H         1 UNK         0.1085 
     77 H77        27.3053   -4.7215   -2.8507 H         1 UNK         0.0836 
     78 H78        26.7815   -6.0002   -1.8057 H         1 UNK         0.0836 
     79 H79        29.4431   -6.0661   -3.1595 H         1 UNK         0.0731 
     80 H80        30.8375   -5.8923   -2.1255 H         1 UNK         0.0731 
     81 H81        30.4543   -5.0582   -5.1014 H         1 UNK         0.1312 
     82 H82        31.7220   -0.9691   -5.0201 H         1 UNK         0.1406 
     83 H83        30.4137   -2.8695   -1.4102 H         1 UNK         0.1631 
     84 H84        32.4209   -0.3857   -2.2169 H         1 UNK         0.0717 
     85 H85        30.9210   -0.5627   -1.3393 H         1 UNK         0.0717 
     86 H86        28.7297   -0.2744   -2.7081 H         1 UNK         0.0934 
     87 H87        28.3323    1.4058   -2.8106 H         1 UNK         0.0934 
     88 H88        29.3930    0.0977   -5.3441 H         1 UNK         0.0739 
     89 H89        27.2094   -1.1094   -4.0736 H         1 UNK         0.3093 
     90 H90        25.5859   -2.3206   -7.0374 H         1 UNK         0.0818 
     91 H91        27.3708   -3.9305   -6.5118 H         1 UNK         0.0819 
     92 H92        27.2242   -3.6078   -4.7944 H         1 UNK         0.0819 
     93 H93        25.9096   -4.4086   -5.6567 H         1 UNK         0.0819 
     94 H94        24.8926   -2.5692   -4.2915 H         1 UNK         0.3041 
     95 H95        22.9209    0.4507   -4.0848 H         1 UNK         0.0784 
     96 H96        21.4637   -1.3528   -4.9449 H         1 UNK         0.0793 
     97 H97        22.2897   -2.5476   -3.9608 H         1 UNK         0.0793 
     98 H98        21.3473   -1.2682   -3.1951 H         1 UNK         0.0793 
     99 H99        23.7094   -1.4858   -2.1227 H         1 UNK         0.3024 
    100 H100       26.6584    0.1515   -1.0307 H         1 UNK         0.1171 
    101 H101       25.4468    0.3216    1.1293 H         1 UNK         0.0786 
    102 H102       24.8726    1.5525    0.0178 H         1 UNK         0.0786 
    103 H103       23.8972    0.1192    0.3101 H         1 UNK         0.0786 
    104 H104       25.1693   -2.0177    0.0717 H         1 UNK         0.2977 
    105 H105       26.1634    1.4767   -4.6591 H         1 UNK         0.3127 
    106 H106       26.7194    4.0780   -5.7199 H         1 UNK         0.0770 
    107 H107       24.0613    2.5927   -5.3591 H         1 UNK         0.0814 
    108 H108       24.2321    4.3131   -5.6828 H         1 UNK         0.0814 
    109 H109       24.8321    3.6431   -4.1733 H         1 UNK         0.0814 
    110 H110       25.3207    1.1107   -7.1894 H         1 UNK         0.2983 
    111 H111       24.7283    2.2770   -9.7227 H         1 UNK         0.0947 
    112 H112       24.4255   -0.1026  -10.4351 H         1 UNK         0.0806 
    113 H113       23.6217    0.2188   -8.9063 H         1 UNK         0.0806 
    114 H114       25.1523   -0.6535   -8.9308 H         1 UNK         0.0806 
    115 H115       27.5787    0.3954   -8.5818 H         1 UNK         0.3000 
    116 H116       29.1002    1.2118  -11.0327 H         1 UNK         0.0850 
    117 H117       30.2067   -0.9964  -10.8893 H         1 UNK         0.0810 
    118 H118       28.4800   -1.2089  -11.1172 H         1 UNK         0.0810 
    119 H119       29.1910   -1.4611   -9.5256 H         1 UNK         0.0810 
    120 H120       29.9241    3.0182   -9.9831 H         1 UNK         0.3040 
    121 H121       31.0435    3.1774   -7.4131 H         1 UNK         0.0766 
    122 H122       30.4842    5.1659   -8.7814 H         1 UNK         0.0812 
    123 H123       31.7367    4.7519   -9.9538 H         1 UNK         0.0812 
    124 H124       32.1769    5.2202   -8.3176 H         1 UNK         0.0812 
    125 H125       32.7178    2.1650   -6.5701 H         1 UNK         0.3205 
    126 H126       34.4949    0.8962   -6.2214 H         1 UNK         0.0754 
    127 H127       36.6358    1.4840   -7.2986 H         1 UNK         0.0769 
    128 H128       35.7461    2.9529   -6.9391 H         1 UNK         0.0769 
    129 H129       35.8036    2.3370   -8.5902 H         1 UNK         0.0769 
    130 H130       32.3928   -0.0767   -8.0907 H         1 UNK         0.2981 
    131 H131       31.8330   -1.8101   -9.2578 H         1 UNK         0.0541 
    132 H132       33.3864    0.5436  -10.5916 H         1 UNK         0.3459 
    133 H133       33.6270   -0.1133  -12.1932 H         1 UNK         0.3459 
    134 H134       34.5297   -3.1720   -8.9125 H         1 UNK         0.0612 
    135 H135       33.0001   -3.9211   -9.2784 H         1 UNK         0.0612 
    136 H136       31.1395   -2.1159   -7.1510 H         1 UNK         0.0624 
    137 H137       30.8255   -3.8365   -7.2017 H         1 UNK         0.0624 
@<TRIPOS>BOND
     1    1    2 1    
     2    1   72 1    
     3    1   73 1    
     4    1   74 1    
     5    2    3 2    
     6    2    4 am   BACKBONE|DICT|INTERRES
     7    4    5 1    
     8    4   75 1    
     9    5    6 1    
    10    5   35 1    
    11    5   76 1    
    12    6    7 1    
    13    6   77 1    
    14    6   78 1    
    15    7    8 1    
    16    8    9 1    
    17    8   79 1    
    18    8   80 1    
    19    9   10 ar   
    20    9   14 ar   
    21   10   11 ar   
    22   10   81 1    
    23   11   12 ar   
    24   11   71 1    
    25   12   13 ar   
    26   12   82 1    
    27   13   14 ar   
    28   13   15 1    
    29   14   83 1    
    30   15   16 1    
    31   15   84 1    
    32   15   85 1    
    33   16   17 1    
    34   17   18 1    
    35   17   86 1    
    36   17   87 1    
    37   18   19 1    
    38   18   37 1    
    39   18   88 1    
    40   19   20 am   BACKBONE|DICT|INTERRES
    41   19   89 1    
    42   20   21 2    
    43   20   22 1    
    44   22   23 1    
    45   22   24 1    
    46   22   90 1    
    47   23   91 1    
    48   23   92 1    
    49   23   93 1    
    50   24   25 am   BACKBONE|DICT|INTERRES
    51   24   94 1    
    52   25   26 2    
    53   25   27 1    
    54   27   28 1    
    55   27   29 1    
    56   27   95 1    
    57   28   96 1    
    58   28   97 1    
    59   28   98 1    
    60   29   30 am   BACKBONE|DICT|INTERRES
    61   29   99 1    
    62   30   31 2    
    63   30   32 1    
    64   32   33 1    
    65   32   34 1    
    66   32  100 1    
    67   33  101 1    
    68   33  102 1    
    69   33  103 1    
    70   34   35 am   BACKBONE|DICT|INTERRES
    71   34  104 1    
    72   35   36 2    
    73   37   38 2    
    74   37   39 am   BACKBONE|DICT|INTERRES
    75   39   40 1    
    76   39  105 1    
    77   40   41 1    
    78   40   42 1    
    79   40  106 1    
    80   41  107 1    
    81   41  108 1    
    82   41  109 1    
    83   42   43 2    
    84   42   44 am   BACKBONE|DICT|INTERRES
    85   44   45 1    
    86   44  110 1    
    87   45   46 1    
    88   45   47 1    
    89   45  111 1    
    90   46  112 1    
    91   46  113 1    
    92   46  114 1    
    93   47   48 2    
    94   47   49 am   BACKBONE|DICT|INTERRES
    95   49   50 1    
    96   49  115 1    
    97   50   51 1    
    98   50   52 1    
    99   50  116 1    
   100   51  117 1    
   101   51  118 1    
   102   51  119 1    
   103   52   53 2    
   104   52   54 am   BACKBONE|DICT|INTERRES
   105   54   55 1    
   106   54  120 1    
   107   55   56 1    
   108   55   57 1    
   109   55  121 1    
   110   56  122 1    
   111   56  123 1    
   112   56  124 1    
   113   57   58 2    
   114   57   59 am   BACKBONE|DICT|INTERRES
   115   59   60 1    
   116   59  125 1    
   117   60   61 1    
   118   60   62 1    
   119   60  126 1    
   120   61  127 1    
   121   61  128 1    
   122   61  129 1    
   123   62   63 2    
   124   62   64 am   BACKBONE|DICT|INTERRES
   125   64   65 1    
   126   64  130 1    
   127   65   66 1    
   128   65   69 1    
   129   65  131 1    
   130   66   67 am   BACKBONE|DICT|INTERRES
   131   66   68 2    
   132   67  132 1    
   133   67  133 1    
   134   69   70 1    
   135   69  134 1    
   136   69  135 1    
   137   70   71 1    
   138   71  136 1    
   139   71  137 1    
@<TRIPOS>SUBSTRUCTURE
     1 UNK         1 GROUP             0       ****    0 ROOT    
