@<TRIPOS>MOLECULE
3R137
137   139    1
SMALL
USER_CHARGES


@<TRIPOS>ATOM
      1 CA         23.3776   -4.3410   -6.1069 C.3       0 UNK        -0.2020 
      2 C          24.4194   -4.0484   -5.0395 C.2       0 UNK         0.4855 
      3 O          24.2593   -3.1042   -4.2655 O.2       0 UNK        -0.5197 
      4 N          25.4791   -4.8648   -4.9696 N.am      1 UNK        -0.4892 
      5 CA         26.6277   -4.7184   -4.0591 C.3       1 UNK         0.0835 
      6 C6         27.4968   -3.4750   -4.4076 C.3       12 UNK        -0.0855 
      7 S7         29.2689   -3.8754   -4.5588 S.3       12 UNK        -0.2931 
      8 C8         29.9760   -3.0438   -3.1011 C.3       12 UNK         0.0378 
      9 C9         29.9599   -1.5282   -3.2422 C.ar      12 UNK        -0.0802 
     10 C10        30.7912   -0.9059   -4.1788 C.ar      12 UNK        -0.0944 
     11 C11        30.7999    0.4854   -4.3051 C.ar      12 UNK        -0.0787 
     12 C12        29.9736    1.2559   -3.4843 C.ar      12 UNK        -0.0862 
     13 C13        29.1343    0.6467   -2.5466 C.ar      12 UNK        -0.0733 
     14 C14        29.1340   -0.7469   -2.4262 C.ar      12 UNK        -0.0832 
     15 C15        28.2377    1.5056   -1.6626 C.3       12 UNK         0.0240 
     16 S16        26.4615    1.2995   -2.0237 S.3       12 UNK        -0.2522 
     17 C17        26.3832    1.5091   -3.8369 C.3       12 UNK        -0.0967 
     18 CA         25.9769    0.1738   -4.5169 C.3       5 UNK         0.0660 
     19 N          24.6080   -0.2735   -4.2337 N.am      5 UNK        -0.4015 
     20 C          23.4612    0.4122   -4.3453 C.2       4 UNK         0.4946 
     21 O          23.3695    1.5853   -4.7107 O.2       4 UNK        -0.5353 
     22 CA         22.1741   -0.3405   -3.9622 C.3       4 UNK         0.0277 
     23 CB         21.5392   -0.9915   -5.2015 C.3       4 UNK        -0.1981 
     24 N          22.3690   -1.3542   -2.9176 N.am      4 UNK        -0.4209 
     25 C          22.6222   -1.0690   -1.6325 C.2       3 UNK         0.4942 
     26 O          22.7496    0.0775   -1.2018 O.2       3 UNK        -0.5208 
     27 CA         22.6943   -2.2393   -0.6431 C.3       3 UNK         0.0250 
     28 CB         21.2682   -2.6554   -0.2230 C.3       3 UNK        -0.1990 
     29 N          23.4530   -3.4012   -1.1303 N.am      3 UNK        -0.4232 
     30 C          23.9196   -4.3565   -0.3075 C.2       2 UNK         0.4993 
     31 O          23.8248   -4.2973    0.9199 O.2       2 UNK        -0.5286 
     32 CA         24.5694   -5.6127   -0.9158 C.3       2 UNK         0.0209 
     33 CB         23.5607   -6.7738   -0.9357 C.3       2 UNK        -0.1931 
     34 N          25.1002   -5.4276   -2.2644 N.am      2 UNK        -0.4546 
     35 C          26.2447   -4.7964   -2.5585 C.2       1 UNK         0.5154 
     36 O          26.9771   -4.3008   -1.7008 O.2       1 UNK        -0.5181 
     37 C          26.2791    0.1539   -6.0269 C.2       5 UNK         0.5014 
     38 O          25.4750    0.6136   -6.8397 O.2       5 UNK        -0.5248 
     39 N          27.4488   -0.4008   -6.3740 N.am      6 UNK        -0.4434 
     40 CA         27.8990   -0.5927   -7.7557 C.3       6 UNK         0.0363 
     41 CB         28.9408   -1.7214   -7.7853 C.3       6 UNK        -0.1936 
     42 C          28.4699    0.6805   -8.4018 C.2       6 UNK         0.5081 
     43 O          28.4895    0.7685   -9.6301 O.2       6 UNK        -0.5248 
     44 N          28.9323    1.6318   -7.5760 N.am      7 UNK        -0.4718 
     45 CA         29.5705    2.8942   -7.9689 C.3       7 UNK         0.0273 
     46 CB         28.5334    3.8462   -8.6085 C.3       7 UNK        -0.1935 
     47 C          30.8287    2.6517   -8.8302 C.2       7 UNK         0.5018 
     48 O          31.6109    1.7497   -8.5167 O.2       7 UNK        -0.5186 
     49 N          31.0022    3.4320   -9.9054 N.am      8 UNK        -0.4240 
     50 CA         32.1503    3.3973  -10.8196 C.3       8 UNK         0.0235 
     51 CB         31.9690    4.4836  -11.8922 C.3       8 UNK        -0.2000 
     52 C          32.4310    2.0335  -11.4815 C.2       8 UNK         0.4941 
     53 O          33.5607    1.8086  -11.9159 O.2       8 UNK        -0.5273 
     54 N          31.4310    1.1401  -11.5249 N.am      9 UNK        -0.4262 
     55 CA         31.5661   -0.2309  -12.0221 C.3       9 UNK         0.0264 
     56 CB         30.1711   -0.8523  -12.1973 C.3       9 UNK        -0.1955 
     57 C          32.4480   -1.1322  -11.1357 C.2       9 UNK         0.5031 
     58 O          32.9648   -2.1269  -11.6477 O.2       9 UNK        -0.5390 
     59 N          32.6078   -0.7873   -9.8485 N.am      10 UNK        -0.4204 
     60 CA         33.4559   -1.5183   -8.9007 C.3       10 UNK         0.0237 
     61 CB         32.5821   -2.2188   -7.8482 C.3       10 UNK        -0.1985 
     62 C          34.4857   -0.6049   -8.2229 C.2       10 UNK         0.4970 
     63 O          35.6329   -1.0218   -8.0600 O.2       10 UNK        -0.4914 
     64 N          34.0731    0.6086   -7.8369 N.am      11 UNK        -0.4285 
     65 CA         34.9122    1.5917   -7.1343 C.3       11 UNK         0.1007 
     66 C          35.7140    2.5284   -8.0847 C.2       11 UNK         0.5703 
     67 N          35.5818    2.4257   -9.4021 N.am      11 UNK        -0.7361 
     68 O          36.4899    3.3585   -7.6167 O.2       11 UNK        -0.4986 
     69 C69        34.0858    2.3992   -6.0973 C.3       12 UNK        -0.0947 
     70 S70        33.3924    1.3556   -4.7669 S.3       12 UNK        -0.2240 
     71 C71        31.6817    1.1577   -5.3426 C.3       12 UNK         0.0194 
     72 H72        23.5615   -5.2922   -6.6056 H         1 UNK         0.0906 
     73 H73        22.3836   -4.3793   -5.6624 H         1 UNK         0.0906 
     74 H74        23.3859   -3.5551   -6.8614 H         1 UNK         0.0906 
     75 H75        25.5443   -5.6388   -5.6177 H         1 UNK         0.3140 
     76 H76        27.2246   -5.6156   -4.2318 H         1 UNK         0.1085 
     77 H77        27.3500   -2.6675   -3.6914 H         1 UNK         0.0836 
     78 H78        27.1972   -3.0608   -5.3707 H         1 UNK         0.0836 
     79 H79        31.0073   -3.3763   -2.9747 H         1 UNK         0.0731 
     80 H80        29.4431   -3.3617   -2.2040 H         1 UNK         0.0731 
     81 H81        31.4327   -1.5073   -4.8084 H         1 UNK         0.1312 
     82 H82        29.9822    2.3334   -3.5785 H         1 UNK         0.1406 
     83 H83        28.4880   -1.2201   -1.6982 H         1 UNK         0.1631 
     84 H84        28.4922    2.5617   -1.7649 H         1 UNK         0.0717 
     85 H85        28.4158    1.2513   -0.6169 H         1 UNK         0.0717 
     86 H86        25.6861    2.3128   -4.0729 H         1 UNK         0.0934 
     87 H87        27.3475    1.8590   -4.2054 H         1 UNK         0.0934 
     88 H88        26.6015   -0.6007   -4.0751 H         1 UNK         0.0739 
     89 H89        24.5186   -1.2632   -4.0161 H         1 UNK         0.3093 
     90 H90        21.4693    0.3997   -3.5768 H         1 UNK         0.0818 
     91 H91        22.2008   -1.7303   -5.6518 H         1 UNK         0.0819 
     92 H92        20.5976   -1.4833   -4.9571 H         1 UNK         0.0819 
     93 H93        21.3244   -0.2427   -5.9652 H         1 UNK         0.0819 
     94 H94        22.3025   -2.3180   -3.2107 H         1 UNK         0.3041 
     95 H95        23.2072   -1.8525    0.2407 H         1 UNK         0.0784 
     96 H96        20.6838   -1.7902    0.0940 H         1 UNK         0.0793 
     97 H97        20.7296   -3.1304   -1.0437 H         1 UNK         0.0793 
     98 H98        21.2809   -3.3522    0.6149 H         1 UNK         0.0793 
     99 H99        23.6429   -3.4633   -2.1236 H         1 UNK         0.3024 
    100 H100       25.3965   -5.8931   -0.2588 H         1 UNK         0.1171 
    101 H101       22.7109   -6.5601   -1.5853 H         1 UNK         0.0786 
    102 H102       24.0249   -7.6979   -1.2808 H         1 UNK         0.0786 
    103 H103       23.1662   -6.9662    0.0632 H         1 UNK         0.0786 
    104 H104       24.5555   -5.7994   -3.0292 H         1 UNK         0.2977 
    105 H105       28.0667   -0.7421   -5.6507 H         1 UNK         0.3127 
    106 H106       27.0463   -0.9049   -8.3629 H         1 UNK         0.0770 
    107 H107       29.7562   -1.5277   -7.0900 H         1 UNK         0.0814 
    108 H108       29.3747   -1.8373   -8.7797 H         1 UNK         0.0814 
    109 H109       28.4952   -2.6789   -7.5158 H         1 UNK         0.0814 
    110 H110       28.8933    1.4460   -6.5853 H         1 UNK         0.2983 
    111 H111       29.9214    3.3672   -7.0514 H         1 UNK         0.0947 
    112 H112       28.9458    4.8447   -8.7591 H         1 UNK         0.0806 
    113 H113       27.6625    3.9620   -7.9630 H         1 UNK         0.0806 
    114 H114       28.1774    3.4806   -9.5727 H         1 UNK         0.0806 
    115 H115       30.2966    4.1273  -10.1010 H         1 UNK         0.3000 
    116 H116       33.0340    3.6472  -10.2290 H         1 UNK         0.0850 
    117 H117       32.8220    4.5085  -12.5722 H         1 UNK         0.0810 
    118 H118       31.8870    5.4748  -11.4457 H         1 UNK         0.0810 
    119 H119       31.0770    4.3099  -12.4953 H         1 UNK         0.0810 
    120 H120       30.5371    1.3929  -11.1242 H         1 UNK         0.3040 
    121 H121       32.0391   -0.1808  -13.0052 H         1 UNK         0.0766 
    122 H122       30.2408   -1.8417  -12.6514 H         1 UNK         0.0812 
    123 H123       29.5401   -0.2433  -12.8447 H         1 UNK         0.0812 
    124 H124       29.6590   -0.9711  -11.2424 H         1 UNK         0.0812 
    125 H125       32.1546    0.0567   -9.5130 H         1 UNK         0.3205 
    126 H126       34.0251   -2.2904   -9.4225 H         1 UNK         0.0754 
    127 H127       32.0302   -1.5009   -7.2452 H         1 UNK         0.0769 
    128 H128       33.1928   -2.8126   -7.1667 H         1 UNK         0.0769 
    129 H129       31.8640   -2.8945   -8.3130 H         1 UNK         0.0769 
    130 H130       33.1226    0.9161   -8.0267 H         1 UNK         0.2981 
    131 H131       35.6735    1.0490   -6.5707 H         1 UNK         0.0541 
    132 H132       34.9634    1.7441   -9.8124 H         1 UNK         0.3459 
    133 H133       36.1200    3.0353   -9.9967 H         1 UNK         0.3459 
    134 H134       33.2881    2.9564   -6.5910 H         1 UNK         0.0612 
    135 H135       34.7136    3.1464   -5.6088 H         1 UNK         0.0612 
    136 H136       31.2785    2.1376   -5.5954 H         1 UNK         0.0624 
    137 H137       31.6734    0.5676   -6.2569 H         1 UNK         0.0624 
@<TRIPOS>BOND
     1    1    2 1    
     2    1   72 1    
     3    1   73 1    
     4    1   74 1    
     5    2    3 2    
     6    2    4 am   BACKBONE|DICT|INTERRES
     7    4    5 1    
     8    4   75 1    
     9    5    6 1    
    10    5   35 1    
    11    5   76 1    
    12    6    7 1    
    13    6   77 1    
    14    6   78 1    
    15    7    8 1    
    16    8    9 1    
    17    8   79 1    
    18    8   80 1    
    19    9   10 ar   
    20    9   14 ar   
    21   10   11 ar   
    22   10   81 1    
    23   11   12 ar   
    24   11   71 1    
    25   12   13 ar   
    26   12   82 1    
    27   13   14 ar   
    28   13   15 1    
    29   14   83 1    
    30   15   16 1    
    31   15   84 1    
    32   15   85 1    
    33   16   17 1    
    34   17   18 1    
    35   17   86 1    
    36   17   87 1    
    37   18   19 1    
    38   18   37 1    
    39   18   88 1    
    40   19   20 am   BACKBONE|DICT|INTERRES
    41   19   89 1    
    42   20   21 2    
    43   20   22 1    
    44   22   23 1    
    45   22   24 1    
    46   22   90 1    
    47   23   91 1    
    48   23   92 1    
    49   23   93 1    
    50   24   25 am   BACKBONE|DICT|INTERRES
    51   24   94 1    
    52   25   26 2    
    53   25   27 1    
    54   27   28 1    
    55   27   29 1    
    56   27   95 1    
    57   28   96 1    
    58   28   97 1    
    59   28   98 1    
    60   29   30 am   BACKBONE|DICT|INTERRES
    61   29   99 1    
    62   30   31 2    
    63   30   32 1    
    64   32   33 1    
    65   32   34 1    
    66   32  100 1    
    67   33  101 1    
    68   33  102 1    
    69   33  103 1    
    70   34   35 am   BACKBONE|DICT|INTERRES
    71   34  104 1    
    72   35   36 2    
    73   37   38 2    
    74   37   39 am   BACKBONE|DICT|INTERRES
    75   39   40 1    
    76   39  105 1    
    77   40   41 1    
    78   40   42 1    
    79   40  106 1    
    80   41  107 1    
    81   41  108 1    
    82   41  109 1    
    83   42   43 2    
    84   42   44 am   BACKBONE|DICT|INTERRES
    85   44   45 1    
    86   44  110 1    
    87   45   46 1    
    88   45   47 1    
    89   45  111 1    
    90   46  112 1    
    91   46  113 1    
    92   46  114 1    
    93   47   48 2    
    94   47   49 am   BACKBONE|DICT|INTERRES
    95   49   50 1    
    96   49  115 1    
    97   50   51 1    
    98   50   52 1    
    99   50  116 1    
   100   51  117 1    
   101   51  118 1    
   102   51  119 1    
   103   52   53 2    
   104   52   54 am   BACKBONE|DICT|INTERRES
   105   54   55 1    
   106   54  120 1    
   107   55   56 1    
   108   55   57 1    
   109   55  121 1    
   110   56  122 1    
   111   56  123 1    
   112   56  124 1    
   113   57   58 2    
   114   57   59 am   BACKBONE|DICT|INTERRES
   115   59   60 1    
   116   59  125 1    
   117   60   61 1    
   118   60   62 1    
   119   60  126 1    
   120   61  127 1    
   121   61  128 1    
   122   61  129 1    
   123   62   63 2    
   124   62   64 am   BACKBONE|DICT|INTERRES
   125   64   65 1    
   126   64  130 1    
   127   65   66 1    
   128   65   69 1    
   129   65  131 1    
   130   66   67 am   BACKBONE|DICT|INTERRES
   131   66   68 2    
   132   67  132 1    
   133   67  133 1    
   134   69   70 1    
   135   69  134 1    
   136   69  135 1    
   137   70   71 1    
   138   71  136 1    
   139   71  137 1    
@<TRIPOS>SUBSTRUCTURE
     1 UNK         1 GROUP             0       ****    0 ROOT    
