@<TRIPOS>MOLECULE
3R137
137   139    1
SMALL
USER_CHARGES


@<TRIPOS>ATOM
      1 CA         27.6846   -2.9087    2.6720 C.3       0 UNK        -0.2020 
      2 C          28.3370   -1.9712    1.6672 C.2       0 UNK         0.4855 
      3 O          28.5694   -0.8037    1.9811 O.2       0 UNK        -0.5197 
      4 N          28.6332   -2.4730    0.4609 N.am      1 UNK        -0.4892 
      5 CA         29.2714   -1.7187   -0.6298 C.3       1 UNK         0.0835 
      6 C6         29.8969   -2.6604   -1.6870 C.3       12 UNK        -0.0855 
      7 S7         31.2364   -3.6727   -0.9632 S.3       12 UNK        -0.2931 
      8 C8         31.0918   -5.2364   -1.8879 C.3       12 UNK         0.0378 
      9 C9         31.2742   -5.0277   -3.3841 C.ar      12 UNK        -0.0802 
     10 C10        32.4975   -4.5787   -3.8901 C.ar      12 UNK        -0.0944 
     11 C11        32.6492   -4.3238   -5.2556 C.ar      12 UNK        -0.0787 
     12 C12        31.5753   -4.5483   -6.1220 C.ar      12 UNK        -0.0862 
     13 C13        30.3492   -5.0037   -5.6289 C.ar      12 UNK        -0.0733 
     14 C14        30.2096   -5.2548   -4.2602 C.ar      12 UNK        -0.0832 
     15 C15        29.1683   -5.1890   -6.5737 C.3       12 UNK         0.0240 
     16 S16        27.6908   -4.2693   -6.0294 S.3       12 UNK        -0.2522 
     17 C17        28.3023   -2.5481   -5.9662 C.3       12 UNK        -0.0967 
     18 CA         27.5805   -1.6291   -6.9777 C.3       5 UNK         0.0660 
     19 N          26.1178   -1.6834   -6.8369 N.am      5 UNK        -0.4015 
     20 C          25.2334   -1.0381   -7.6092 C.2       4 UNK         0.4946 
     21 O          25.5589   -0.2447   -8.4900 O.2       4 UNK        -0.5353 
     22 CA         23.7344   -1.2864   -7.3718 C.3       4 UNK         0.0277 
     23 CB         23.1511   -2.0938   -8.5427 C.3       4 UNK        -0.1981 
     24 N          23.4291   -1.9831   -6.1176 N.am      4 UNK        -0.4209 
     25 C          23.3850   -1.4703   -4.8788 C.2       3 UNK         0.4942 
     26 O          23.0794   -2.1691   -3.9120 O.2       3 UNK        -0.5208 
     27 CA         23.6787    0.0311   -4.6480 C.3       3 UNK         0.0250 
     28 CB         22.3811    0.8531   -4.7202 C.3       3 UNK        -0.1990 
     29 N          24.3070    0.2568   -3.3449 N.am      3 UNK        -0.4232 
     30 C          25.5270   -0.1769   -3.0019 C.2       2 UNK         0.4993 
     31 O          26.2965   -0.7103   -3.8043 O.2       2 UNK        -0.5286 
     32 CA         25.9562    0.0558   -1.5395 C.3       2 UNK         0.0209 
     33 CB         24.7829   -0.0647   -0.5449 C.3       2 UNK        -0.1931 
     34 N          27.0086   -0.8700   -1.1166 N.am      2 UNK        -0.4546 
     35 C          28.3255   -0.6817   -1.2783 C.2       1 UNK         0.5154 
     36 O          28.8085    0.2845   -1.8707 O.2       1 UNK        -0.5181 
     37 C          28.1469   -0.1975   -6.8990 C.2       5 UNK         0.5014 
     38 O          29.0490    0.1422   -7.6660 O.2       5 UNK        -0.5248 
     39 N          27.5873    0.6288   -6.0058 N.am      6 UNK        -0.4434 
     40 CA         27.8857    2.0584   -5.8624 C.3       6 UNK         0.0363 
     41 CB         27.2119    2.5870   -4.5866 C.3       6 UNK        -0.1936 
     42 C          27.5000    2.9306   -7.0733 C.2       6 UNK         0.5081 
     43 O          28.0111    4.0452   -7.1779 O.2       6 UNK        -0.5248 
     44 N          26.6270    2.4332   -7.9581 N.am      7 UNK        -0.4718 
     45 CA         26.2261    3.1099   -9.1923 C.3       7 UNK         0.0273 
     46 CB         24.6943    3.0591   -9.3275 C.3       7 UNK        -0.1935 
     47 C          26.9002    2.4700  -10.4142 C.2       7 UNK         0.5018 
     48 O          27.4217    3.1924  -11.2637 O.2       7 UNK        -0.5186 
     49 N          26.8650    1.1327  -10.4878 N.am      8 UNK        -0.4240 
     50 CA         27.3423    0.3426  -11.6220 C.3       8 UNK         0.0235 
     51 CB         26.7518   -1.0753  -11.5373 C.3       8 UNK        -0.2000 
     52 C          28.8730    0.2862  -11.7243 C.2       8 UNK         0.4941 
     53 O          29.4082    0.4772  -12.8172 O.2       8 UNK        -0.5273 
     54 N          29.5432    0.0084  -10.5984 N.am      9 UNK        -0.4262 
     55 CA         30.9983   -0.1583  -10.5226 C.3       9 UNK         0.0264 
     56 CB         31.3032   -1.4749   -9.7837 C.3       9 UNK        -0.1955 
     57 C          31.6936    1.0168   -9.8169 C.2       9 UNK         0.5031 
     58 O          32.9160    1.1270   -9.9168 O.2       9 UNK        -0.5390 
     59 N          30.9208    1.8354   -9.0849 N.am      10 UNK        -0.4204 
     60 CA         31.3615    2.8649   -8.1326 C.3       10 UNK         0.0237 
     61 CB         32.1283    4.0016   -8.8418 C.3       10 UNK        -0.1985 
     62 C          32.1293    2.2698   -6.9321 C.2       10 UNK         0.4970 
     63 O          32.9678    2.9528   -6.3419 O.2       10 UNK        -0.4914 
     64 N          31.8319    1.0055   -6.6051 N.am      11 UNK        -0.4285 
     65 CA         32.5152    0.2068   -5.5777 C.3       11 UNK         0.1007 
     66 C          31.7456    0.1469   -4.2263 C.2       11 UNK         0.5703 
     67 N          30.4544    0.4519   -4.1932 N.am      11 UNK        -0.7361 
     68 O          32.3337   -0.1482   -3.1898 O.2       11 UNK        -0.4986 
     69 C69        32.8262   -1.2045   -6.1413 C.3       12 UNK        -0.0947 
     70 S70        34.2175   -2.0335   -5.3014 S.3       12 UNK        -0.2240 
     71 C71        33.9625   -3.7706   -5.7891 C.3       12 UNK         0.0194 
     72 H72        27.5435   -3.9100    2.2655 H         1 UNK         0.0906 
     73 H73        28.3037   -2.9903    3.5651 H         1 UNK         0.0906 
     74 H74        26.7096   -2.5221    2.9676 H         1 UNK         0.0906 
     75 H75        28.4497   -3.4477    0.2681 H         1 UNK         0.3140 
     76 H76        30.0852   -1.1356   -0.1916 H         1 UNK         0.1085 
     77 H77        29.1337   -3.3060   -2.1253 H         1 UNK         0.0836 
     78 H78        30.3258   -2.0901   -2.5135 H         1 UNK         0.0836 
     79 H79        30.1256   -5.6936   -1.6687 H         1 UNK         0.0731 
     80 H80        31.8505   -5.9329   -1.5284 H         1 UNK         0.0731 
     81 H81        33.3204   -4.3887   -3.2143 H         1 UNK         0.1312 
     82 H82        31.6873   -4.3412   -7.1777 H         1 UNK         0.1406 
     83 H83        29.2578   -5.5961   -3.8761 H         1 UNK         0.1631 
     84 H84        28.9236   -6.2503   -6.6326 H         1 UNK         0.0717 
     85 H85        29.4230   -4.8723   -7.5864 H         1 UNK         0.0717 
     86 H86        28.1698   -2.1856   -4.9448 H         1 UNK         0.0934 
     87 H87        29.3780   -2.5302   -6.1487 H         1 UNK         0.0934 
     88 H88        27.8072   -1.9968   -7.9807 H         1 UNK         0.0739 
     89 H89        25.7736   -2.3045   -6.1185 H         1 UNK         0.3093 
     90 H90        23.2413   -0.3131   -7.3703 H         1 UNK         0.0818 
     91 H91        22.0725   -2.2170   -8.4424 H         1 UNK         0.0819 
     92 H92        23.3286   -1.5890   -9.4938 H         1 UNK         0.0819 
     93 H93        23.5982   -3.0863   -8.6139 H         1 UNK         0.0819 
     94 H94        23.2155   -2.9654   -6.2151 H         1 UNK         0.3041 
     95 H95        24.3703    0.4080   -5.4005 H         1 UNK         0.0784 
     96 H96        21.8891    0.7340   -5.6861 H         1 UNK         0.0793 
     97 H97        21.6670    0.5463   -3.9547 H         1 UNK         0.0793 
     98 H98        22.5774    1.9175   -4.5889 H         1 UNK         0.0793 
     99 H99        23.7218    0.6612   -2.6290 H         1 UNK         0.3024 
    100 H100       26.3453    1.0752   -1.4839 H         1 UNK         0.1171 
    101 H101       25.1292    0.0263    0.4852 H         1 UNK         0.0786 
    102 H102       24.0443    0.7238   -0.6934 H         1 UNK         0.0786 
    103 H103       24.2701   -1.0233   -0.6388 H         1 UNK         0.0786 
    104 H104       26.7104   -1.7085   -0.6411 H         1 UNK         0.2977 
    105 H105       26.9313    0.2254   -5.3398 H         1 UNK         0.3127 
    106 H106       28.9640    2.1679   -5.7428 H         1 UNK         0.0770 
    107 H107       26.1275    2.4800   -4.6294 H         1 UNK         0.0814 
    108 H108       27.4295    3.6455   -4.4372 H         1 UNK         0.0814 
    109 H109       27.5718    2.0595   -3.7031 H         1 UNK         0.0814 
    110 H110       26.2761    1.4904   -7.8295 H         1 UNK         0.2983 
    111 H111       26.5215    4.1613   -9.1671 H         1 UNK         0.0947 
    112 H112       24.3672    3.5579  -10.2409 H         1 UNK         0.0806 
    113 H113       24.2086    3.5633   -8.4920 H         1 UNK         0.0806 
    114 H114       24.3188    2.0358   -9.3626 H         1 UNK         0.0806 
    115 H115       26.3874    0.6182   -9.7473 H         1 UNK         0.3000 
    116 H116       26.9677    0.8081  -12.5364 H         1 UNK         0.0850 
    117 H117       27.0751   -1.6853  -12.3819 H         1 UNK         0.0810 
    118 H118       25.6619   -1.0507  -11.5535 H         1 UNK         0.0810 
    119 H119       27.0579   -1.5895  -10.6253 H         1 UNK         0.0810 
    120 H120       29.0297   -0.1165   -9.7334 H         1 UNK         0.3040 
    121 H121       31.4288   -0.2291  -11.5236 H         1 UNK         0.0766 
    122 H122       30.9124   -1.4733   -8.7659 H         1 UNK         0.0812 
    123 H123       32.3784   -1.6478   -9.7193 H         1 UNK         0.0812 
    124 H124       30.8709   -2.3289  -10.3052 H         1 UNK         0.0812 
    125 H125       29.9374    1.6026   -9.0370 H         1 UNK         0.3205 
    126 H126       30.4550    3.3006   -7.7160 H         1 UNK         0.0754 
    127 H127       32.3072    4.8350   -8.1613 H         1 UNK         0.0769 
    128 H128       31.5631    4.3922   -9.6881 H         1 UNK         0.0769 
    129 H129       33.0999    3.6709   -9.2097 H         1 UNK         0.0769 
    130 H130       31.0905    0.5410   -7.1141 H         1 UNK         0.2981 
    131 H131       33.4710    0.6860   -5.3571 H         1 UNK         0.0541 
    132 H132       29.9664    0.7093   -5.0319 H         1 UNK         0.3459 
    133 H133       29.9554    0.4275   -3.3071 H         1 UNK         0.3459 
    134 H134       31.9311   -1.8256   -6.1105 H         1 UNK         0.0612 
    135 H135       33.1059   -1.1352   -7.1939 H         1 UNK         0.0612 
    136 H136       34.0055   -3.8462   -6.8768 H         1 UNK         0.0624 
    137 H137       34.7891   -4.3702   -5.4054 H         1 UNK         0.0624 
@<TRIPOS>BOND
     1    1    2 1    
     2    1   72 1    
     3    1   73 1    
     4    1   74 1    
     5    2    3 2    
     6    2    4 am   BACKBONE|DICT|INTERRES
     7    4    5 1    
     8    4   75 1    
     9    5    6 1    
    10    5   35 1    
    11    5   76 1    
    12    6    7 1    
    13    6   77 1    
    14    6   78 1    
    15    7    8 1    
    16    8    9 1    
    17    8   79 1    
    18    8   80 1    
    19    9   10 ar   
    20    9   14 ar   
    21   10   11 ar   
    22   10   81 1    
    23   11   12 ar   
    24   11   71 1    
    25   12   13 ar   
    26   12   82 1    
    27   13   14 ar   
    28   13   15 1    
    29   14   83 1    
    30   15   16 1    
    31   15   84 1    
    32   15   85 1    
    33   16   17 1    
    34   17   18 1    
    35   17   86 1    
    36   17   87 1    
    37   18   19 1    
    38   18   37 1    
    39   18   88 1    
    40   19   20 am   BACKBONE|DICT|INTERRES
    41   19   89 1    
    42   20   21 2    
    43   20   22 1    
    44   22   23 1    
    45   22   24 1    
    46   22   90 1    
    47   23   91 1    
    48   23   92 1    
    49   23   93 1    
    50   24   25 am   BACKBONE|DICT|INTERRES
    51   24   94 1    
    52   25   26 2    
    53   25   27 1    
    54   27   28 1    
    55   27   29 1    
    56   27   95 1    
    57   28   96 1    
    58   28   97 1    
    59   28   98 1    
    60   29   30 am   BACKBONE|DICT|INTERRES
    61   29   99 1    
    62   30   31 2    
    63   30   32 1    
    64   32   33 1    
    65   32   34 1    
    66   32  100 1    
    67   33  101 1    
    68   33  102 1    
    69   33  103 1    
    70   34   35 am   BACKBONE|DICT|INTERRES
    71   34  104 1    
    72   35   36 2    
    73   37   38 2    
    74   37   39 am   BACKBONE|DICT|INTERRES
    75   39   40 1    
    76   39  105 1    
    77   40   41 1    
    78   40   42 1    
    79   40  106 1    
    80   41  107 1    
    81   41  108 1    
    82   41  109 1    
    83   42   43 2    
    84   42   44 am   BACKBONE|DICT|INTERRES
    85   44   45 1    
    86   44  110 1    
    87   45   46 1    
    88   45   47 1    
    89   45  111 1    
    90   46  112 1    
    91   46  113 1    
    92   46  114 1    
    93   47   48 2    
    94   47   49 am   BACKBONE|DICT|INTERRES
    95   49   50 1    
    96   49  115 1    
    97   50   51 1    
    98   50   52 1    
    99   50  116 1    
   100   51  117 1    
   101   51  118 1    
   102   51  119 1    
   103   52   53 2    
   104   52   54 am   BACKBONE|DICT|INTERRES
   105   54   55 1    
   106   54  120 1    
   107   55   56 1    
   108   55   57 1    
   109   55  121 1    
   110   56  122 1    
   111   56  123 1    
   112   56  124 1    
   113   57   58 2    
   114   57   59 am   BACKBONE|DICT|INTERRES
   115   59   60 1    
   116   59  125 1    
   117   60   61 1    
   118   60   62 1    
   119   60  126 1    
   120   61  127 1    
   121   61  128 1    
   122   61  129 1    
   123   62   63 2    
   124   62   64 am   BACKBONE|DICT|INTERRES
   125   64   65 1    
   126   64  130 1    
   127   65   66 1    
   128   65   69 1    
   129   65  131 1    
   130   66   67 am   BACKBONE|DICT|INTERRES
   131   66   68 2    
   132   67  132 1    
   133   67  133 1    
   134   69   70 1    
   135   69  134 1    
   136   69  135 1    
   137   70   71 1    
   138   71  136 1    
   139   71  137 1    
@<TRIPOS>SUBSTRUCTURE
     1 UNK         1 GROUP             0       ****    0 ROOT    
