@<TRIPOS>MOLECULE
3R137
137   139    1
SMALL
USER_CHARGES


@<TRIPOS>ATOM
      1 CA         26.7147   -6.2704   -6.1778 C.3       0 UNK        -0.2020 
      2 C          26.5228   -5.5910   -4.8310 C.2       0 UNK         0.4855 
      3 O          25.4108   -5.1715   -4.5099 O.2       0 UNK        -0.5197 
      4 N          27.5975   -5.4748   -4.0395 N.am      1 UNK        -0.4892 
      5 CA         27.5948   -4.8424   -2.7158 C.3       1 UNK         0.0835 
      6 C6         28.9343   -5.0801   -1.9775 C.3       12 UNK        -0.0855 
      7 S7         28.9018   -4.5356   -0.2286 S.3       12 UNK        -0.2931 
      8 C8         30.6020   -3.9383    0.0563 C.3       12 UNK         0.0378 
      9 C9         31.0033   -2.8214   -0.8983 C.ar      12 UNK        -0.0802 
     10 C10        31.8462   -3.1034   -1.9757 C.ar      12 UNK        -0.0944 
     11 C11        32.1956   -2.1039   -2.8834 C.ar      12 UNK        -0.0787 
     12 C12        31.7295   -0.8004   -2.6863 C.ar      12 UNK        -0.0862 
     13 C13        30.8982   -0.4949   -1.6011 C.ar      12 UNK        -0.0733 
     14 C14        30.5365   -1.5155   -0.7125 C.ar      12 UNK        -0.0832 
     15 C15        30.4054    0.9319   -1.3551 C.3       12 UNK         0.0240 
     16 S16        29.9419    1.8514   -2.8659 S.3       12 UNK        -0.2522 
     17 C17        28.4885    0.9115   -3.4284 C.3       12 UNK        -0.0967 
     18 CA         28.2486    1.0535   -4.9548 C.3       5 UNK         0.0660 
     19 N          27.7247   -0.1835   -5.5310 N.am      5 UNK        -0.4015 
     20 C          27.5788   -0.4257   -6.8398 C.2       4 UNK         0.4946 
     21 O          27.9761    0.3269   -7.7327 O.2       4 UNK        -0.5353 
     22 CA         26.8429   -1.7221   -7.2118 C.3       4 UNK         0.0277 
     23 CB         27.8359   -2.8898   -7.3201 C.3       4 UNK        -0.1981 
     24 N          25.7730   -2.0516   -6.2608 N.am      4 UNK        -0.4209 
     25 C          24.6561   -1.3225   -6.1085 C.2       3 UNK         0.4942 
     26 O          24.3873   -0.3353   -6.7898 O.2       3 UNK        -0.5208 
     27 CA         23.7082   -1.7182   -4.9660 C.3       3 UNK         0.0250 
     28 CB         22.8361   -2.9200   -5.3610 C.3       3 UNK        -0.1990 
     29 N          24.4266   -1.9964   -3.7200 N.am      3 UNK        -0.4232 
     30 C          25.0880   -1.0650   -3.0152 C.2       2 UNK         0.4993 
     31 O          25.1271    0.1233   -3.3261 O.2       2 UNK        -0.5286 
     32 CA         25.8783   -1.5241   -1.7798 C.3       2 UNK         0.0209 
     33 CB         25.0262   -1.3766   -0.5100 C.3       2 UNK        -0.1931 
     34 N          26.3809   -2.8946   -1.8732 N.am      2 UNK        -0.4546 
     35 C          27.2262   -3.3450   -2.8102 C.2       1 UNK         0.5154 
     36 O          27.6794   -2.6444   -3.7215 O.2       1 UNK        -0.5181 
     37 C          27.3478    2.2596   -5.3043 C.2       5 UNK         0.5014 
     38 O          27.8299    3.2283   -5.8929 O.2       5 UNK        -0.5248 
     39 N          26.0488    2.1588   -4.9811 N.am      6 UNK        -0.4434 
     40 CA         25.0268    3.1813   -5.2304 C.3       6 UNK         0.0363 
     41 CB         23.7135    2.7721   -4.5451 C.3       6 UNK        -0.1936 
     42 C          24.7828    3.4681   -6.7210 C.2       6 UNK         0.5081 
     43 O          24.5609    4.6239   -7.0825 O.2       6 UNK        -0.5248 
     44 N          24.8539    2.4282   -7.5636 N.am      7 UNK        -0.4718 
     45 CA         24.7573    2.5285   -9.0243 C.3       7 UNK         0.0273 
     46 CB         24.5004    1.1287   -9.6077 C.3       7 UNK        -0.1935 
     47 C          25.9943    3.1600   -9.6913 C.2       7 UNK         0.5018 
     48 O          25.9436    3.4321  -10.8914 O.2       7 UNK        -0.5186 
     49 N          27.0790    3.3541   -8.9246 N.am      8 UNK        -0.4240 
     50 CA         28.3913    3.8564   -9.3446 C.3       8 UNK         0.0235 
     51 CB         28.2997    5.3020   -9.8793 C.3       8 UNK        -0.2000 
     52 C          29.1319    2.9032  -10.3026 C.2       8 UNK         0.4941 
     53 O          30.0048    3.3480  -11.0503 O.2       8 UNK        -0.5273 
     54 N          28.8055    1.6039  -10.2366 N.am      9 UNK        -0.4262 
     55 CA         29.5767    0.5285  -10.8626 C.3       9 UNK         0.0264 
     56 CB         28.7021   -0.7289  -10.9977 C.3       9 UNK        -0.1955 
     57 C          30.8456    0.2378  -10.0443 C.2       9 UNK         0.5031 
     58 O          31.9028    0.0014  -10.6309 O.2       9 UNK        -0.5390 
     59 N          30.7100    0.3222   -8.7110 N.am      10 UNK        -0.4204 
     60 CA         31.7584    0.2296   -7.6929 C.3       10 UNK         0.0237 
     61 CB         32.7186    1.4365   -7.8011 C.3       10 UNK        -0.1985 
     62 C          32.4758   -1.1347   -7.6782 C.2       10 UNK         0.4970 
     63 O          31.9090   -2.1376   -8.1188 O.2       10 UNK        -0.4914 
     64 N          33.6757   -1.1596   -7.0899 N.am      11 UNK        -0.4285 
     65 CA         34.4811   -2.3664   -6.8717 C.3       11 UNK         0.1007 
     66 C          35.2623   -2.7806   -8.1469 C.2       11 UNK         0.5703 
     67 N          35.4961   -4.0718   -8.3393 N.am      11 UNK        -0.7361 
     68 O          35.6930   -1.9444   -8.9396 O.2       11 UNK        -0.4986 
     69 C69        35.4378   -2.1873   -5.6603 C.3       12 UNK        -0.0947 
     70 S70        34.6649   -1.6613   -4.0824 S.3       12 UNK        -0.2240 
     71 C71        33.0223   -2.4490   -4.1099 C.3       12 UNK         0.0194 
     72 H72        26.1402   -5.7548   -6.9467 H         1 UNK         0.0906 
     73 H73        27.7608   -6.2760   -6.4833 H         1 UNK         0.0906 
     74 H74        26.3648   -7.3011   -6.1292 H         1 UNK         0.0906 
     75 H75        28.4924   -5.8103   -4.3659 H         1 UNK         0.3140 
     76 H76        26.8111   -5.3435   -2.1426 H         1 UNK         0.1085 
     77 H77        29.1749   -6.1445   -1.9804 H         1 UNK         0.0836 
     78 H78        29.7398   -4.5927   -2.5237 H         1 UNK         0.0836 
     79 H79        31.2912   -4.7805   -0.0251 H         1 UNK         0.0731 
     80 H80        30.6822   -3.5813    1.0841 H         1 UNK         0.0731 
     81 H81        32.2034   -4.1132   -2.1266 H         1 UNK         0.1312 
     82 H82        32.0123   -0.0262   -3.3862 H         1 UNK         0.1406 
     83 H83        29.8901   -1.2981    0.1272 H         1 UNK         0.1631 
     84 H84        31.1963    1.4833   -0.8454 H         1 UNK         0.0717 
     85 H85        29.5482    0.9294   -0.6798 H         1 UNK         0.0717 
     86 H86        28.6661   -0.1358   -3.1792 H         1 UNK         0.0934 
     87 H87        27.6186    1.2099   -2.8404 H         1 UNK         0.0934 
     88 H88        29.2117    1.2203   -5.4423 H         1 UNK         0.0739 
     89 H89        27.4367   -0.9048   -4.8791 H         1 UNK         0.3093 
     90 H90        26.3887   -1.5684   -8.1928 H         1 UNK         0.0818 
     91 H91        27.3566   -3.7771   -7.7314 H         1 UNK         0.0819 
     92 H92        28.6663   -2.6391   -7.9824 H         1 UNK         0.0819 
     93 H93        28.2638   -3.1523   -6.3518 H         1 UNK         0.0819 
     94 H94        25.9341   -2.8261   -5.6309 H         1 UNK         0.3041 
     95 H95        23.0443   -0.8704   -4.7822 H         1 UNK         0.0784 
     96 H96        22.2531   -2.6974   -6.2557 H         1 UNK         0.0793 
     97 H97        23.4330   -3.8061   -5.5767 H         1 UNK         0.0793 
     98 H98        22.1299   -3.1751   -4.5707 H         1 UNK         0.0793 
     99 H99        24.4725   -2.9608   -3.4199 H         1 UNK         0.3024 
    100 H100       26.7442   -0.8661   -1.6860 H         1 UNK         0.1171 
    101 H101       25.6046   -1.6054    0.3854 H         1 UNK         0.0786 
    102 H102       24.6593   -0.3545   -0.4034 H         1 UNK         0.0786 
    103 H103       24.1566   -2.0349   -0.5272 H         1 UNK         0.0786 
    104 H104       26.0739   -3.5340   -1.1539 H         1 UNK         0.2977 
    105 H105       25.7317    1.3319   -4.4735 H         1 UNK         0.3127 
    106 H106       25.3753    4.1091   -4.7722 H         1 UNK         0.0770 
    107 H107       23.8456    2.6622   -3.4686 H         1 UNK         0.0814 
    108 H108       23.3367    1.8249   -4.9337 H         1 UNK         0.0814 
    109 H109       22.9382    3.5232   -4.7019 H         1 UNK         0.0814 
    110 H110       24.9530    1.4914   -7.1799 H         1 UNK         0.2983 
    111 H111       23.9026    3.1634   -9.2675 H         1 UNK         0.0947 
    112 H112       25.3196    0.4444   -9.3836 H         1 UNK         0.0806 
    113 H113       24.3933    1.1662  -10.6926 H         1 UNK         0.0806 
    114 H114       23.5827    0.6956   -9.2095 H         1 UNK         0.0806 
    115 H115       27.0155    3.0942   -7.9466 H         1 UNK         0.3000 
    116 H116       28.9958    3.8849   -8.4366 H         1 UNK         0.0850 
    117 H117       27.7715    5.9503   -9.1802 H         1 UNK         0.0810 
    118 H118       27.7838    5.3494  -10.8385 H         1 UNK         0.0810 
    119 H119       29.2932    5.7275  -10.0261 H         1 UNK         0.0810 
    120 H120       28.1193    1.3217   -9.5450 H         1 UNK         0.3040 
    121 H121       29.8796    0.8447  -11.8632 H         1 UNK         0.0766 
    122 H122       29.2539   -1.5339  -11.4849 H         1 UNK         0.0812 
    123 H123       27.8158   -0.5312  -11.6008 H         1 UNK         0.0812 
    124 H124       28.3708   -1.1025  -10.0289 H         1 UNK         0.0812 
    125 H125       29.7658    0.4452   -8.3523 H         1 UNK         0.3205 
    126 H126       31.2423    0.3036   -6.7346 H         1 UNK         0.0754 
    127 H127       33.3556    1.5257   -6.9206 H         1 UNK         0.0769 
    128 H128       32.1651    2.3724   -7.8820 H         1 UNK         0.0769 
    129 H129       33.3670    1.3601   -8.6751 H         1 UNK         0.0769 
    130 H130       34.0871   -0.2939   -6.7761 H         1 UNK         0.2981 
    131 H131       33.8009   -3.1884   -6.6419 H         1 UNK         0.0541 
    132 H132       36.0159   -4.3583   -9.1542 H         1 UNK         0.3459 
    133 H133       35.1613   -4.7668   -7.6902 H         1 UNK         0.3459 
    134 H134       35.9638   -3.1234   -5.4644 H         1 UNK         0.0612 
    135 H135       36.2118   -1.4554   -5.8990 H         1 UNK         0.0612 
    136 H136       33.1500   -3.5286   -4.2033 H         1 UNK         0.0624 
    137 H137       32.4517   -2.1279   -4.9782 H         1 UNK         0.0624 
@<TRIPOS>BOND
     1    1    2 1    
     2    1   72 1    
     3    1   73 1    
     4    1   74 1    
     5    2    3 2    
     6    2    4 am   BACKBONE|DICT|INTERRES
     7    4    5 1    
     8    4   75 1    
     9    5    6 1    
    10    5   35 1    
    11    5   76 1    
    12    6    7 1    
    13    6   77 1    
    14    6   78 1    
    15    7    8 1    
    16    8    9 1    
    17    8   79 1    
    18    8   80 1    
    19    9   10 ar   
    20    9   14 ar   
    21   10   11 ar   
    22   10   81 1    
    23   11   12 ar   
    24   11   71 1    
    25   12   13 ar   
    26   12   82 1    
    27   13   14 ar   
    28   13   15 1    
    29   14   83 1    
    30   15   16 1    
    31   15   84 1    
    32   15   85 1    
    33   16   17 1    
    34   17   18 1    
    35   17   86 1    
    36   17   87 1    
    37   18   19 1    
    38   18   37 1    
    39   18   88 1    
    40   19   20 am   BACKBONE|DICT|INTERRES
    41   19   89 1    
    42   20   21 2    
    43   20   22 1    
    44   22   23 1    
    45   22   24 1    
    46   22   90 1    
    47   23   91 1    
    48   23   92 1    
    49   23   93 1    
    50   24   25 am   BACKBONE|DICT|INTERRES
    51   24   94 1    
    52   25   26 2    
    53   25   27 1    
    54   27   28 1    
    55   27   29 1    
    56   27   95 1    
    57   28   96 1    
    58   28   97 1    
    59   28   98 1    
    60   29   30 am   BACKBONE|DICT|INTERRES
    61   29   99 1    
    62   30   31 2    
    63   30   32 1    
    64   32   33 1    
    65   32   34 1    
    66   32  100 1    
    67   33  101 1    
    68   33  102 1    
    69   33  103 1    
    70   34   35 am   BACKBONE|DICT|INTERRES
    71   34  104 1    
    72   35   36 2    
    73   37   38 2    
    74   37   39 am   BACKBONE|DICT|INTERRES
    75   39   40 1    
    76   39  105 1    
    77   40   41 1    
    78   40   42 1    
    79   40  106 1    
    80   41  107 1    
    81   41  108 1    
    82   41  109 1    
    83   42   43 2    
    84   42   44 am   BACKBONE|DICT|INTERRES
    85   44   45 1    
    86   44  110 1    
    87   45   46 1    
    88   45   47 1    
    89   45  111 1    
    90   46  112 1    
    91   46  113 1    
    92   46  114 1    
    93   47   48 2    
    94   47   49 am   BACKBONE|DICT|INTERRES
    95   49   50 1    
    96   49  115 1    
    97   50   51 1    
    98   50   52 1    
    99   50  116 1    
   100   51  117 1    
   101   51  118 1    
   102   51  119 1    
   103   52   53 2    
   104   52   54 am   BACKBONE|DICT|INTERRES
   105   54   55 1    
   106   54  120 1    
   107   55   56 1    
   108   55   57 1    
   109   55  121 1    
   110   56  122 1    
   111   56  123 1    
   112   56  124 1    
   113   57   58 2    
   114   57   59 am   BACKBONE|DICT|INTERRES
   115   59   60 1    
   116   59  125 1    
   117   60   61 1    
   118   60   62 1    
   119   60  126 1    
   120   61  127 1    
   121   61  128 1    
   122   61  129 1    
   123   62   63 2    
   124   62   64 am   BACKBONE|DICT|INTERRES
   125   64   65 1    
   126   64  130 1    
   127   65   66 1    
   128   65   69 1    
   129   65  131 1    
   130   66   67 am   BACKBONE|DICT|INTERRES
   131   66   68 2    
   132   67  132 1    
   133   67  133 1    
   134   69   70 1    
   135   69  134 1    
   136   69  135 1    
   137   70   71 1    
   138   71  136 1    
   139   71  137 1    
@<TRIPOS>SUBSTRUCTURE
     1 UNK         1 GROUP             0       ****    0 ROOT    
