@<TRIPOS>MOLECULE
3R137
137   139    1
SMALL
USER_CHARGES


@<TRIPOS>ATOM
      1 CA         26.2437   -3.8252    0.5956 C.3       0 UNK        -0.2020 
      2 C          26.8674   -2.4449    0.4525 C.2       0 UNK         0.4855 
      3 O          26.9743   -1.7135    1.4370 O.2       0 UNK        -0.5197 
      4 N          27.2759   -2.0827   -0.7665 N.am      1 UNK        -0.4892 
      5 CA         27.8497   -0.7892   -1.1305 C.3       1 UNK         0.0835 
      6 C6         29.3340   -0.6359   -0.6654 C.3       12 UNK        -0.0855 
      7 S7         30.6356   -1.1561   -1.8411 S.3       12 UNK        -0.2931 
      8 C8         30.6252   -2.9611   -1.6331 C.3       12 UNK         0.0378 
      9 C9         31.0111   -3.6313   -2.9401 C.ar      12 UNK        -0.0802 
     10 C10        32.3578   -3.7839   -3.2759 C.ar      12 UNK        -0.0944 
     11 C11        32.7253   -4.3561   -4.4966 C.ar      12 UNK        -0.0787 
     12 C12        31.7315   -4.7980   -5.3763 C.ar      12 UNK        -0.0862 
     13 C13        30.3785   -4.6510   -5.0506 C.ar      12 UNK        -0.0733 
     14 C14        30.0245   -4.0707   -3.8280 C.ar      12 UNK        -0.0832 
     15 C15        29.3042   -5.1344   -6.0155 C.3       12 UNK         0.0240 
     16 S16        28.9283   -3.9031   -7.3056 S.3       12 UNK        -0.2522 
     17 C17        27.8020   -2.7678   -6.4287 C.3       12 UNK        -0.0967 
     18 CA         26.3086   -3.1832   -6.5409 C.3       5 UNK         0.0660 
     19 N          25.5590   -2.7529   -5.3554 N.am      5 UNK        -0.4015 
     20 C          24.3086   -3.1234   -5.0423 C.2       4 UNK         0.4946 
     21 O          23.6752   -3.9917   -5.6429 O.2       4 UNK        -0.5353 
     22 CA         23.6343   -2.3485   -3.8976 C.3       4 UNK         0.0277 
     23 CB         23.9637   -2.9826   -2.5365 C.3       4 UNK        -0.1981 
     24 N          24.0173   -0.9311   -3.8975 N.am      4 UNK        -0.4209 
     25 C          23.5857   -0.0290   -4.7934 C.2       3 UNK         0.4942 
     26 O          22.7709   -0.2825   -5.6792 O.2       3 UNK        -0.5208 
     27 CA         24.1937    1.3819   -4.7210 C.3       3 UNK         0.0250 
     28 CB         23.4351    2.2477   -3.7027 C.3       3 UNK        -0.1990 
     29 N          25.6169    1.3564   -4.3807 N.am      3 UNK        -0.4232 
     30 C          26.5949    0.9753   -5.2141 C.2       2 UNK         0.4993 
     31 O          26.4209    0.6995   -6.4030 O.2       2 UNK        -0.5286 
     32 CA         28.0054    0.8535   -4.6143 C.3       2 UNK         0.0209 
     33 CB         28.8178    2.1220   -4.8871 C.3       2 UNK        -0.1931 
     34 N          28.0268    0.5662   -3.1759 N.am      2 UNK        -0.4546 
     35 C          27.6015   -0.5838   -2.6385 C.2       1 UNK         0.5154 
     36 O          27.0351   -1.4654   -3.2950 O.2       1 UNK        -0.5181 
     37 C          25.6733   -2.6732   -7.8587 C.2       5 UNK         0.5014 
     38 O          25.8921   -3.2793   -8.9083 O.2       5 UNK        -0.5248 
     39 N          24.9062   -1.5723   -7.7745 N.am      6 UNK        -0.4434 
     40 CA         24.2761   -0.8175   -8.8643 C.3       6 UNK         0.0363 
     41 CB         23.2068   -1.6639   -9.5865 C.3       6 UNK        -0.1936 
     42 C          25.3165   -0.2031   -9.8192 C.2       6 UNK         0.5081 
     43 O          25.0828   -0.1292  -11.0270 O.2       6 UNK        -0.5248 
     44 N          26.4552    0.2108   -9.2510 N.am      7 UNK        -0.4718 
     45 CA         27.6234    0.7067   -9.9755 C.3       7 UNK         0.0273 
     46 CB         28.8421   -0.1286   -9.5579 C.3       7 UNK        -0.1935 
     47 C          27.8931    2.1947   -9.7161 C.2       7 UNK         0.5018 
     48 O          28.5956    2.8121  -10.5174 O.2       7 UNK        -0.5186 
     49 N          27.3690    2.7419   -8.6069 N.am      8 UNK        -0.4240 
     50 CA         27.5176    4.1195   -8.1022 C.3       8 UNK         0.0235 
     51 CB         26.9685    5.1572   -9.1006 C.3       8 UNK        -0.2000 
     52 C          28.9424    4.4888   -7.6387 C.2       8 UNK         0.4941 
     53 O          29.0822    5.1271   -6.5949 O.2       8 UNK        -0.5273 
     54 N          29.9669    4.0521   -8.3781 N.am      9 UNK        -0.4262 
     55 CA         31.3660    4.0267   -7.9564 C.3       9 UNK         0.0264 
     56 CB         32.2618    4.1337   -9.2006 C.3       9 UNK        -0.1955 
     57 C          31.6504    2.7147   -7.2083 C.2       9 UNK         0.5031 
     58 O          31.0391    1.6895   -7.5248 O.2       9 UNK        -0.5390 
     59 N          32.5867    2.7572   -6.2503 N.am      10 UNK        -0.4204 
     60 CA         33.0157    1.6080   -5.4455 C.3       10 UNK         0.0237 
     61 CB         34.0534    2.0633   -4.4061 C.3       10 UNK        -0.1985 
     62 C          33.5715    0.4721   -6.3222 C.2       10 UNK         0.4970 
     63 O          34.5539    0.6841   -7.0365 O.2       10 UNK        -0.4914 
     64 N          32.9012   -0.6844   -6.2673 N.am      11 UNK        -0.4285 
     65 CA         33.1276   -1.8687   -7.1129 C.3       11 UNK         0.1007 
     66 C          32.8030   -1.6640   -8.6252 C.2       11 UNK         0.5703 
     67 N          32.1427   -0.5865   -9.0313 N.am      11 UNK        -0.7361 
     68 O          33.1338   -2.5122   -9.4508 O.2       11 UNK        -0.4986 
     69 C69        34.5153   -2.5454   -6.9005 C.3       12 UNK        -0.0947 
     70 S70        34.9579   -2.8580   -5.1579 S.3       12 UNK        -0.2240 
     71 C71        34.1988   -4.4858   -4.8526 C.3       12 UNK         0.0194 
     72 H72        26.7785   -4.4022    1.3496 H         1 UNK         0.0906 
     73 H73        25.2037   -3.7361    0.9083 H         1 UNK         0.0906 
     74 H74        26.2704   -4.3846   -0.3394 H         1 UNK         0.0906 
     75 H75        27.1165   -2.6790   -1.5694 H         1 UNK         0.3140 
     76 H76        27.2561   -0.0244   -0.6241 H         1 UNK         0.1085 
     77 H77        29.4981   -1.1396    0.2885 H         1 UNK         0.0836 
     78 H78        29.5213    0.4181   -0.4550 H         1 UNK         0.0836 
     79 H79        29.6411   -3.3053   -1.3156 H         1 UNK         0.0731 
     80 H80        31.3199   -3.2401   -0.8394 H         1 UNK         0.0731 
     81 H81        33.1231   -3.4327   -2.5970 H         1 UNK         0.1312 
     82 H82        32.0087   -5.2429   -6.3225 H         1 UNK         0.1406 
     83 H83        28.9811   -3.9502   -3.5698 H         1 UNK         0.1631 
     84 H84        28.3910   -5.3955   -5.4782 H         1 UNK         0.0717 
     85 H85        29.6403   -6.0524   -6.4999 H         1 UNK         0.0717 
     86 H86        28.1151   -2.7297   -5.3863 H         1 UNK         0.0934 
     87 H87        27.9616   -1.7567   -6.8084 H         1 UNK         0.0934 
     88 H88        26.2492   -4.2735   -6.5595 H         1 UNK         0.0739 
     89 H89        26.0353   -2.1085   -4.7287 H         1 UNK         0.3093 
     90 H90        22.5537   -2.4089   -4.0463 H         1 UNK         0.0818 
     91 H91        23.4763   -2.4501   -1.7197 H         1 UNK         0.0819 
     92 H92        23.6199   -4.0172   -2.4984 H         1 UNK         0.0819 
     93 H93        25.0348   -2.9916   -2.3412 H         1 UNK         0.0819 
     94 H94        24.7130   -0.6504   -3.2222 H         1 UNK         0.3041 
     95 H95        24.0853    1.8417   -5.7061 H         1 UNK         0.0784 
     96 H96        22.3735    2.2986   -3.9496 H         1 UNK         0.0793 
     97 H97        23.5152    1.8509   -2.6899 H         1 UNK         0.0793 
     98 H98        23.8125    3.2705   -3.6937 H         1 UNK         0.0793 
     99 H99        25.8677    1.5953   -3.4324 H         1 UNK         0.3024 
    100 H100       28.5000    0.0231   -5.1229 H         1 UNK         0.1171 
    101 H101       29.8298    2.0454   -4.4902 H         1 UNK         0.0786 
    102 H102       28.9074    2.2761   -5.9602 H         1 UNK         0.0786 
    103 H103       28.3516    3.0113   -4.4610 H         1 UNK         0.0786 
    104 H104       28.4938    1.2393   -2.5850 H         1 UNK         0.2977 
    105 H105       24.8078   -1.1488   -6.8624 H         1 UNK         0.3127 
    106 H106       23.7657    0.0240   -8.3931 H         1 UNK         0.0770 
    107 H107       23.6500   -2.4892  -10.1443 H         1 UNK         0.0814 
    108 H108       22.6443   -1.0575  -10.2973 H         1 UNK         0.0814 
    109 H109       22.4903   -2.0819   -8.8793 H         1 UNK         0.0814 
    110 H110       26.5292    0.1571   -8.2382 H         1 UNK         0.2983 
    111 H111       27.4839    0.5885  -11.0524 H         1 UNK         0.0947 
    112 H112       29.7265    0.1842  -10.1128 H         1 UNK         0.0806 
    113 H113       28.6889   -1.1890   -9.7599 H         1 UNK         0.0806 
    114 H114       29.0658   -0.0187   -8.4957 H         1 UNK         0.0806 
    115 H115       26.8496    2.1211   -7.9974 H         1 UNK         0.3000 
    116 H116       26.8877    4.1643   -7.2119 H         1 UNK         0.0850 
    117 H117       25.9377    4.9349   -9.3765 H         1 UNK         0.0810 
    118 H118       27.5595    5.1994  -10.0158 H         1 UNK         0.0810 
    119 H119       26.9791    6.1570   -8.6647 H         1 UNK         0.0810 
    120 H120       29.7342    3.5174   -9.2111 H         1 UNK         0.3040 
    121 H121       31.5685    4.8731   -7.2967 H         1 UNK         0.0766 
    122 H122       33.3174    4.1310   -8.9258 H         1 UNK         0.0812 
    123 H123       32.0712    5.0572   -9.7476 H         1 UNK         0.0812 
    124 H124       32.1009    3.2996   -9.8855 H         1 UNK         0.0812 
    125 H125       33.0679    3.6286   -6.0809 H         1 UNK         0.3205 
    126 H126       32.1402    1.2410   -4.9059 H         1 UNK         0.0754 
    127 H127       34.3776    1.2246   -3.7882 H         1 UNK         0.0769 
    128 H128       33.6408    2.8176   -3.7357 H         1 UNK         0.0769 
    129 H129       34.9428    2.4822   -4.8789 H         1 UNK         0.0769 
    130 H130       32.0991   -0.7468   -5.6581 H         1 UNK         0.2981 
    131 H131       32.3714   -2.5791   -6.7855 H         1 UNK         0.0541 
    132 H132       31.9471   -0.4821  -10.0127 H         1 UNK         0.3459 
    133 H133       31.8292    0.1233   -8.3760 H         1 UNK         0.3459 
    134 H134       34.5637   -3.4934   -7.4386 H         1 UNK         0.0612 
    135 H135       35.3022   -1.9230   -7.3291 H         1 UNK         0.0612 
    136 H136       34.7216   -4.9628   -4.0225 H         1 UNK         0.0624 
    137 H137       34.3433   -5.1352   -5.7173 H         1 UNK         0.0624 
@<TRIPOS>BOND
     1    1    2 1    
     2    1   72 1    
     3    1   73 1    
     4    1   74 1    
     5    2    3 2    
     6    2    4 am   BACKBONE|DICT|INTERRES
     7    4    5 1    
     8    4   75 1    
     9    5    6 1    
    10    5   35 1    
    11    5   76 1    
    12    6    7 1    
    13    6   77 1    
    14    6   78 1    
    15    7    8 1    
    16    8    9 1    
    17    8   79 1    
    18    8   80 1    
    19    9   10 ar   
    20    9   14 ar   
    21   10   11 ar   
    22   10   81 1    
    23   11   12 ar   
    24   11   71 1    
    25   12   13 ar   
    26   12   82 1    
    27   13   14 ar   
    28   13   15 1    
    29   14   83 1    
    30   15   16 1    
    31   15   84 1    
    32   15   85 1    
    33   16   17 1    
    34   17   18 1    
    35   17   86 1    
    36   17   87 1    
    37   18   19 1    
    38   18   37 1    
    39   18   88 1    
    40   19   20 am   BACKBONE|DICT|INTERRES
    41   19   89 1    
    42   20   21 2    
    43   20   22 1    
    44   22   23 1    
    45   22   24 1    
    46   22   90 1    
    47   23   91 1    
    48   23   92 1    
    49   23   93 1    
    50   24   25 am   BACKBONE|DICT|INTERRES
    51   24   94 1    
    52   25   26 2    
    53   25   27 1    
    54   27   28 1    
    55   27   29 1    
    56   27   95 1    
    57   28   96 1    
    58   28   97 1    
    59   28   98 1    
    60   29   30 am   BACKBONE|DICT|INTERRES
    61   29   99 1    
    62   30   31 2    
    63   30   32 1    
    64   32   33 1    
    65   32   34 1    
    66   32  100 1    
    67   33  101 1    
    68   33  102 1    
    69   33  103 1    
    70   34   35 am   BACKBONE|DICT|INTERRES
    71   34  104 1    
    72   35   36 2    
    73   37   38 2    
    74   37   39 am   BACKBONE|DICT|INTERRES
    75   39   40 1    
    76   39  105 1    
    77   40   41 1    
    78   40   42 1    
    79   40  106 1    
    80   41  107 1    
    81   41  108 1    
    82   41  109 1    
    83   42   43 2    
    84   42   44 am   BACKBONE|DICT|INTERRES
    85   44   45 1    
    86   44  110 1    
    87   45   46 1    
    88   45   47 1    
    89   45  111 1    
    90   46  112 1    
    91   46  113 1    
    92   46  114 1    
    93   47   48 2    
    94   47   49 am   BACKBONE|DICT|INTERRES
    95   49   50 1    
    96   49  115 1    
    97   50   51 1    
    98   50   52 1    
    99   50  116 1    
   100   51  117 1    
   101   51  118 1    
   102   51  119 1    
   103   52   53 2    
   104   52   54 am   BACKBONE|DICT|INTERRES
   105   54   55 1    
   106   54  120 1    
   107   55   56 1    
   108   55   57 1    
   109   55  121 1    
   110   56  122 1    
   111   56  123 1    
   112   56  124 1    
   113   57   58 2    
   114   57   59 am   BACKBONE|DICT|INTERRES
   115   59   60 1    
   116   59  125 1    
   117   60   61 1    
   118   60   62 1    
   119   60  126 1    
   120   61  127 1    
   121   61  128 1    
   122   61  129 1    
   123   62   63 2    
   124   62   64 am   BACKBONE|DICT|INTERRES
   125   64   65 1    
   126   64  130 1    
   127   65   66 1    
   128   65   69 1    
   129   65  131 1    
   130   66   67 am   BACKBONE|DICT|INTERRES
   131   66   68 2    
   132   67  132 1    
   133   67  133 1    
   134   69   70 1    
   135   69  134 1    
   136   69  135 1    
   137   70   71 1    
   138   71  136 1    
   139   71  137 1    
@<TRIPOS>SUBSTRUCTURE
     1 UNK         1 GROUP             0       ****    0 ROOT    
