@<TRIPOS>MOLECULE
3R137
137   139    1
SMALL
USER_CHARGES


@<TRIPOS>ATOM
      1 CA         23.3167   -4.9705   -2.8633 C.3       0 UNK        -0.2020 
      2 C          24.3547   -4.2723   -1.9987 C.2       0 UNK         0.4855 
      3 O          24.0059   -3.3906   -1.2129 O.2       0 UNK        -0.5197 
      4 N          25.6320   -4.6480   -2.1468 N.am      1 UNK        -0.4892 
      5 CA         26.7792   -4.0609   -1.4455 C.3       1 UNK         0.0835 
      6 C6         28.0695   -4.8588   -1.7487 C.3       12 UNK        -0.0855 
      7 S7         29.4286   -4.4661   -0.5965 S.3       12 UNK        -0.2931 
      8 C8         30.8925   -4.7970   -1.6320 C.3       12 UNK         0.0378 
      9 C9         31.0059   -3.8258   -2.7997 C.ar      12 UNK        -0.0802 
     10 C10        30.8427   -4.2741   -4.1136 C.ar      12 UNK        -0.0944 
     11 C11        30.9384   -3.3880   -5.1911 C.ar      12 UNK        -0.0787 
     12 C12        31.1918   -2.0341   -4.9354 C.ar      12 UNK        -0.0862 
     13 C13        31.3689   -1.5721   -3.6256 C.ar      12 UNK        -0.0733 
     14 C14        31.2791   -2.4769   -2.5646 C.ar      12 UNK        -0.0832 
     15 C15        31.6712   -0.1054   -3.3277 C.3       12 UNK         0.0240 
     16 S16        30.7405    1.0874   -4.3478 S.3       12 UNK        -0.2522 
     17 C17        29.0098    0.5817   -4.0639 C.3       12 UNK        -0.0967 
     18 CA         28.2427    0.4006   -5.3997 C.3       5 UNK         0.0660 
     19 N          27.2006   -0.6313   -5.2944 N.am      5 UNK        -0.4015 
     20 C          26.3671   -1.0246   -6.2713 C.2       4 UNK         0.4946 
     21 O          26.3677   -0.5603   -7.4100 O.2       4 UNK        -0.5353 
     22 CA         25.2975   -2.0596   -5.8960 C.3       4 UNK         0.0277 
     23 CB         25.8856   -3.4791   -5.8212 C.3       4 UNK        -0.1981 
     24 N          24.6600   -1.6943   -4.6305 N.am      4 UNK        -0.4209 
     25 C          23.7222   -0.7402   -4.5183 C.2       3 UNK         0.4942 
     26 O          23.1918   -0.1882   -5.4820 O.2       3 UNK        -0.5208 
     27 CA         23.3247   -0.2967   -3.0992 C.3       3 UNK         0.0250 
     28 CB         22.0324   -0.9957   -2.6482 C.3       3 UNK        -0.1990 
     29 N          24.3858   -0.5201   -2.1126 N.am      3 UNK        -0.4232 
     30 C          25.5138    0.2057   -2.0548 C.2       2 UNK         0.4993 
     31 O          25.7518    1.1518   -2.8056 O.2       2 UNK        -0.5286 
     32 CA         26.5826   -0.2276   -1.0334 C.3       2 UNK         0.0209 
     33 CB         26.3496    0.4673    0.3170 C.3       2 UNK        -0.1931 
     34 N          26.6495   -1.6794   -0.8335 N.am      2 UNK        -0.4546 
     35 C          26.9121   -2.5657   -1.8039 C.2       1 UNK         0.5154 
     36 O          27.1655   -2.2398   -2.9652 O.2       1 UNK        -0.5181 
     37 C          27.7160    1.7610   -5.9087 C.2       5 UNK         0.5014 
     38 O          28.4141    2.4493   -6.6531 O.2       5 UNK        -0.5248 
     39 N          26.4825    2.1144   -5.5181 N.am      6 UNK        -0.4434 
     40 CA         25.7583    3.3033   -5.9744 C.3       6 UNK         0.0363 
     41 CB         24.4251    3.3972   -5.2152 C.3       6 UNK        -0.1936 
     42 C          25.5143    3.3569   -7.4969 C.2       6 UNK         0.5081 
     43 O          25.3618    4.4553   -8.0328 O.2       6 UNK        -0.5248 
     44 N          25.4825    2.1944   -8.1628 N.am      7 UNK        -0.4718 
     45 CA         25.3679    2.0686   -9.6155 C.3       7 UNK         0.0273 
     46 CB         24.2876    1.0266   -9.9529 C.3       7 UNK        -0.1935 
     47 C          26.7195    1.6775  -10.2301 C.2       7 UNK         0.5018 
     48 O          27.1913    2.3524  -11.1463 O.2       7 UNK        -0.5186 
     49 N          27.3221    0.5990   -9.7164 N.am      8 UNK        -0.4240 
     50 CA         28.5968    0.0464  -10.1614 C.3       8 UNK         0.0235 
     51 CB         28.5440   -1.4874  -10.0278 C.3       8 UNK        -0.2000 
     52 C          29.7385    0.6619   -9.3417 C.2       8 UNK         0.4941 
     53 O          30.2700    0.0170   -8.4398 O.2       8 UNK        -0.5273 
     54 N          30.1041    1.9077   -9.6672 N.am      9 UNK        -0.4262 
     55 CA         31.1690    2.6527   -8.9851 C.3       9 UNK         0.0264 
     56 CB         31.1464    4.1145   -9.4595 C.3       9 UNK        -0.1955 
     57 C          32.5762    2.0479   -9.1633 C.2       9 UNK         0.5031 
     58 O          33.4389    2.2755   -8.3143 O.2       9 UNK        -0.5390 
     59 N          32.7858    1.2927  -10.2524 N.am      10 UNK        -0.4204 
     60 CA         34.0591    0.6739  -10.6361 C.3       10 UNK         0.0237 
     61 CB         33.8974   -0.0114  -12.0029 C.3       10 UNK        -0.1985 
     62 C          34.6318   -0.3157   -9.6046 C.2       10 UNK         0.4970 
     63 O          35.8534   -0.3830   -9.4615 O.2       10 UNK        -0.4914 
     64 N          33.7562   -1.0516   -8.9083 N.am      11 UNK        -0.4285 
     65 CA         34.1166   -1.9519   -7.7999 C.3       11 UNK         0.1007 
     66 C          34.2455   -1.2434   -6.4192 C.2       11 UNK         0.5703 
     67 N          34.0091    0.0592   -6.3047 N.am      11 UNK        -0.7361 
     68 O          34.6125   -1.8810   -5.4356 O.2       11 UNK        -0.4986 
     69 C69        33.2387   -3.2385   -7.7676 C.3       12 UNK        -0.0947 
     70 S70        31.4469   -2.9493   -7.9579 S.3       12 UNK        -0.2240 
     71 C71        30.7188   -3.9316   -6.6032 C.3       12 UNK         0.0194 
     72 H72        23.7356   -5.8269   -3.3914 H         1 UNK         0.0906 
     73 H73        22.4917   -5.3254   -2.2462 H         1 UNK         0.0906 
     74 H74        22.9164   -4.2779   -3.6031 H         1 UNK         0.0906 
     75 H75        25.8570   -5.3659   -2.8208 H         1 UNK         0.3140 
     76 H76        26.5732   -4.1461   -0.3761 H         1 UNK         0.1085 
     77 H77        28.3822   -4.6992   -2.7818 H         1 UNK         0.0836 
     78 H78        27.8766   -5.9290   -1.6574 H         1 UNK         0.0836 
     79 H79        30.8561   -5.8293   -1.9839 H         1 UNK         0.0731 
     80 H80        31.7877   -4.7169   -1.0137 H         1 UNK         0.0731 
     81 H81        30.6310   -5.3184   -4.2990 H         1 UNK         0.1312 
     82 H82        31.2516   -1.3306   -5.7541 H         1 UNK         0.1406 
     83 H83        31.4106   -2.1330   -1.5475 H         1 UNK         0.1631 
     84 H84        32.7377    0.0648   -3.4772 H         1 UNK         0.0717 
     85 H85        31.4670    0.1198   -2.2797 H         1 UNK         0.0717 
     86 H86        29.0078   -0.3516   -3.5010 H         1 UNK         0.0934 
     87 H87        28.5257    1.3107   -3.4108 H         1 UNK         0.0934 
     88 H88        28.9361    0.0233   -6.1536 H         1 UNK         0.0739 
     89 H89        27.1504   -1.1230   -4.4041 H         1 UNK         0.3093 
     90 H90        24.5396   -2.0582   -6.6829 H         1 UNK         0.0818 
     91 H91        26.6928   -3.5599   -5.0941 H         1 UNK         0.0819 
     92 H92        25.1218   -4.2106   -5.5580 H         1 UNK         0.0819 
     93 H93        26.2964   -3.7746   -6.7875 H         1 UNK         0.0819 
     94 H94        25.0864   -2.0564   -3.7884 H         1 UNK         0.3041 
     95 H95        23.1258    0.7767   -3.1403 H         1 UNK         0.0784 
     96 H96        21.2133   -0.7763   -3.3345 H         1 UNK         0.0793 
     97 H97        22.1437   -2.0789   -2.6144 H         1 UNK         0.0793 
     98 H98        21.7235   -0.6591   -1.6584 H         1 UNK         0.0793 
     99 H99        24.2793   -1.3216   -1.4985 H         1 UNK         0.3024 
    100 H100       27.5510    0.0957   -1.4201 H         1 UNK         0.1171 
    101 H101       27.1516    0.2456    1.0213 H         1 UNK         0.0786 
    102 H102       26.3172    1.5513    0.1969 H         1 UNK         0.0786 
    103 H103       25.4068    0.1614    0.7724 H         1 UNK         0.0786 
    104 H104       26.4137   -2.0212    0.0874 H         1 UNK         0.2977 
    105 H105       26.0236    1.5446   -4.8147 H         1 UNK         0.3127 
    106 H106       26.3645    4.1729   -5.7129 H         1 UNK         0.0770 
    107 H107       23.7816    2.5423   -5.4266 H         1 UNK         0.0814 
    108 H108       23.8765    4.2965   -5.4984 H         1 UNK         0.0814 
    109 H109       24.5828    3.4401   -4.1372 H         1 UNK         0.0814 
    110 H110       25.6617    1.3367   -7.6507 H         1 UNK         0.2983 
    111 H111       25.0657    3.0192  -10.0607 H         1 UNK         0.0947 
    112 H112       24.1975    0.8926  -11.0318 H         1 UNK         0.0806 
    113 H113       23.3111    1.3392   -9.5827 H         1 UNK         0.0806 
    114 H114       24.5098    0.0508   -9.5188 H         1 UNK         0.0806 
    115 H115       26.9027    0.1399   -8.9068 H         1 UNK         0.3000 
    116 H116       28.7622    0.2850  -11.2143 H         1 UNK         0.0850 
    117 H117       27.7492   -1.9121  -10.6410 H         1 UNK         0.0810 
    118 H118       29.4826   -1.9392  -10.3513 H         1 UNK         0.0810 
    119 H119       28.3727   -1.7988   -8.9961 H         1 UNK         0.0810 
    120 H120       29.5874    2.3912  -10.3900 H         1 UNK         0.3040 
    121 H121       30.9471    2.6382   -7.9153 H         1 UNK         0.0766 
    122 H122       30.1853    4.5839   -9.2479 H         1 UNK         0.0812 
    123 H123       31.3340    4.1956  -10.5308 H         1 UNK         0.0812 
    124 H124       31.9107    4.7019   -8.9486 H         1 UNK         0.0812 
    125 H125       32.0112    1.1644  -10.8865 H         1 UNK         0.3205 
    126 H126       34.7871    1.4805  -10.7448 H         1 UNK         0.0754 
    127 H127       34.8369   -0.4613  -12.3279 H         1 UNK         0.0769 
    128 H128       33.5999    0.7009  -12.7728 H         1 UNK         0.0769 
    129 H129       33.1501   -0.8055  -11.9711 H         1 UNK         0.0769 
    130 H130       32.7648   -0.9192   -9.0558 H         1 UNK         0.2981 
    131 H131       35.1297   -2.3096   -7.9926 H         1 UNK         0.0541 
    132 H132       33.7532    0.6237   -7.1057 H         1 UNK         0.3459 
    133 H133       34.1167    0.4960   -5.4048 H         1 UNK         0.3459 
    134 H134       33.4253   -3.8190   -6.8623 H         1 UNK         0.0612 
    135 H135       33.5374   -3.8880   -8.5914 H         1 UNK         0.0612 
    136 H136       31.1029   -4.9502   -6.6762 H         1 UNK         0.0624 
    137 H137       29.6434   -3.9934   -6.7749 H         1 UNK         0.0624 
@<TRIPOS>BOND
     1    1    2 1    
     2    1   72 1    
     3    1   73 1    
     4    1   74 1    
     5    2    3 2    
     6    2    4 am   BACKBONE|DICT|INTERRES
     7    4    5 1    
     8    4   75 1    
     9    5    6 1    
    10    5   35 1    
    11    5   76 1    
    12    6    7 1    
    13    6   77 1    
    14    6   78 1    
    15    7    8 1    
    16    8    9 1    
    17    8   79 1    
    18    8   80 1    
    19    9   10 ar   
    20    9   14 ar   
    21   10   11 ar   
    22   10   81 1    
    23   11   12 ar   
    24   11   71 1    
    25   12   13 ar   
    26   12   82 1    
    27   13   14 ar   
    28   13   15 1    
    29   14   83 1    
    30   15   16 1    
    31   15   84 1    
    32   15   85 1    
    33   16   17 1    
    34   17   18 1    
    35   17   86 1    
    36   17   87 1    
    37   18   19 1    
    38   18   37 1    
    39   18   88 1    
    40   19   20 am   BACKBONE|DICT|INTERRES
    41   19   89 1    
    42   20   21 2    
    43   20   22 1    
    44   22   23 1    
    45   22   24 1    
    46   22   90 1    
    47   23   91 1    
    48   23   92 1    
    49   23   93 1    
    50   24   25 am   BACKBONE|DICT|INTERRES
    51   24   94 1    
    52   25   26 2    
    53   25   27 1    
    54   27   28 1    
    55   27   29 1    
    56   27   95 1    
    57   28   96 1    
    58   28   97 1    
    59   28   98 1    
    60   29   30 am   BACKBONE|DICT|INTERRES
    61   29   99 1    
    62   30   31 2    
    63   30   32 1    
    64   32   33 1    
    65   32   34 1    
    66   32  100 1    
    67   33  101 1    
    68   33  102 1    
    69   33  103 1    
    70   34   35 am   BACKBONE|DICT|INTERRES
    71   34  104 1    
    72   35   36 2    
    73   37   38 2    
    74   37   39 am   BACKBONE|DICT|INTERRES
    75   39   40 1    
    76   39  105 1    
    77   40   41 1    
    78   40   42 1    
    79   40  106 1    
    80   41  107 1    
    81   41  108 1    
    82   41  109 1    
    83   42   43 2    
    84   42   44 am   BACKBONE|DICT|INTERRES
    85   44   45 1    
    86   44  110 1    
    87   45   46 1    
    88   45   47 1    
    89   45  111 1    
    90   46  112 1    
    91   46  113 1    
    92   46  114 1    
    93   47   48 2    
    94   47   49 am   BACKBONE|DICT|INTERRES
    95   49   50 1    
    96   49  115 1    
    97   50   51 1    
    98   50   52 1    
    99   50  116 1    
   100   51  117 1    
   101   51  118 1    
   102   51  119 1    
   103   52   53 2    
   104   52   54 am   BACKBONE|DICT|INTERRES
   105   54   55 1    
   106   54  120 1    
   107   55   56 1    
   108   55   57 1    
   109   55  121 1    
   110   56  122 1    
   111   56  123 1    
   112   56  124 1    
   113   57   58 2    
   114   57   59 am   BACKBONE|DICT|INTERRES
   115   59   60 1    
   116   59  125 1    
   117   60   61 1    
   118   60   62 1    
   119   60  126 1    
   120   61  127 1    
   121   61  128 1    
   122   61  129 1    
   123   62   63 2    
   124   62   64 am   BACKBONE|DICT|INTERRES
   125   64   65 1    
   126   64  130 1    
   127   65   66 1    
   128   65   69 1    
   129   65  131 1    
   130   66   67 am   BACKBONE|DICT|INTERRES
   131   66   68 2    
   132   67  132 1    
   133   67  133 1    
   134   69   70 1    
   135   69  134 1    
   136   69  135 1    
   137   70   71 1    
   138   71  136 1    
   139   71  137 1    
@<TRIPOS>SUBSTRUCTURE
     1 UNK         1 GROUP             0       ****    0 ROOT    
