@<TRIPOS>MOLECULE
3R137
137   139    1
SMALL
USER_CHARGES


@<TRIPOS>ATOM
      1 CA         29.8912   -8.5796   -2.3618 C.3       0 UNK        -0.2020 
      2 C          29.0142   -7.4288   -1.8923 C.2       0 UNK         0.4855 
      3 O          28.2174   -7.6028   -0.9701 O.2       0 UNK        -0.5197 
      4 N          29.1546   -6.2535   -2.5197 N.am      1 UNK        -0.4892 
      5 CA         28.4089   -5.0283   -2.1913 C.3       1 UNK         0.0835 
      6 C6         29.0468   -3.7700   -2.8349 C.3       12 UNK        -0.0855 
      7 S7         30.8129   -3.5896   -2.4131 S.3       12 UNK        -0.2931 
      8 C8         30.7882   -2.1502   -1.2923 C.3       12 UNK         0.0378 
      9 C9         30.5943   -0.8048   -1.9917 C.ar      12 UNK        -0.0802 
     10 C10        31.1734   -0.5349   -3.2371 C.ar      12 UNK        -0.0944 
     11 C11        31.0499    0.7267   -3.8277 C.ar      12 UNK        -0.0787 
     12 C12        30.3383    1.7313   -3.1634 C.ar      12 UNK        -0.0862 
     13 C13        29.7552    1.4774   -1.9177 C.ar      12 UNK        -0.0733 
     14 C14        29.8820    0.2085   -1.3429 C.ar      12 UNK        -0.0832 
     15 C15        29.0251    2.5777   -1.1611 C.3       12 UNK         0.0240 
     16 S16        27.2334    2.5483   -1.4828 S.3       12 UNK        -0.2522 
     17 C17        27.0517    3.7773   -2.8210 C.3       12 UNK        -0.0967 
     18 CA         26.8917    3.1420   -4.2232 C.3       5 UNK         0.0660 
     19 N          25.7976    2.1615   -4.2728 N.am      5 UNK        -0.4015 
     20 C          25.5397    1.3598   -5.3128 C.2       4 UNK         0.4946 
     21 O          26.1584    1.4007   -6.3793 O.2       4 UNK        -0.5353 
     22 CA         24.3466    0.4046   -5.1741 C.3       4 UNK         0.0277 
     23 CB         23.0827    1.0496   -5.7666 C.3       4 UNK        -0.1981 
     24 N          24.6140   -0.8536   -5.8706 N.am      4 UNK        -0.4209 
     25 C          25.4673   -1.7848   -5.4294 C.2       3 UNK         0.4942 
     26 O          26.0528   -1.7272   -4.3453 O.2       3 UNK        -0.5208 
     27 CA         25.7496   -2.9559   -6.3824 C.3       3 UNK         0.0250 
     28 CB         27.0377   -2.6856   -7.1786 C.3       3 UNK        -0.1990 
     29 N          25.8968   -4.2056   -5.6379 N.am      3 UNK        -0.4232 
     30 C          24.8886   -4.8764   -5.0623 C.2       2 UNK         0.4993 
     31 O          23.7005   -4.5826   -5.2024 O.2       2 UNK        -0.5286 
     32 CA         25.2687   -6.0780   -4.1783 C.3       2 UNK         0.0209 
     33 CB         25.1931   -7.3869   -4.9814 C.3       2 UNK        -0.1931 
     34 N          26.6063   -5.9468   -3.5926 N.am      2 UNK        -0.4546 
     35 C          26.9188   -5.1184   -2.5839 C.2       1 UNK         0.5154 
     36 O          26.0895   -4.4386   -1.9781 O.2       1 UNK        -0.5181 
     37 C          26.7643    4.2497   -5.2929 C.2       5 UNK         0.5014 
     38 O          27.7829    4.7941   -5.7179 O.2       5 UNK        -0.5248 
     39 N          25.5271    4.5550   -5.7140 N.am      6 UNK        -0.4434 
     40 CA         25.2216    5.4871   -6.8017 C.3       6 UNK         0.0363 
     41 CB         23.7316    5.8616   -6.7453 C.3       6 UNK        -0.1936 
     42 C          25.5827    4.9310   -8.1916 C.2       6 UNK         0.5081 
     43 O          25.9178    5.7144   -9.0805 O.2       6 UNK        -0.5248 
     44 N          25.5089    3.6025   -8.3592 N.am      7 UNK        -0.4718 
     45 CA         25.9356    2.9011   -9.5721 C.3       7 UNK         0.0273 
     46 CB         25.1478    1.5877   -9.7182 C.3       7 UNK        -0.1935 
     47 C          27.4471    2.6324   -9.5418 C.2       7 UNK         0.5018 
     48 O          28.1161    2.8211  -10.5577 O.2       7 UNK        -0.5186 
     49 N          27.9445    2.2066   -8.3697 N.am      8 UNK        -0.4240 
     50 CA         29.3462    1.9470   -8.0221 C.3       8 UNK         0.0235 
     51 CB         30.1735    3.2494   -8.0768 C.3       8 UNK        -0.2000 
     52 C          30.0017    0.8063   -8.8246 C.2       8 UNK         0.4941 
     53 O          31.2286    0.7433   -8.8872 O.2       8 UNK        -0.5273 
     54 N          29.1930   -0.1001   -9.3943 N.am      9 UNK        -0.4262 
     55 CA         29.6294   -1.1884  -10.2807 C.3       9 UNK         0.0264 
     56 CB         28.3924   -1.8957  -10.8587 C.3       9 UNK        -0.1955 
     57 C          30.5907   -2.2095   -9.6403 C.2       9 UNK         0.5031 
     58 O          31.3265   -2.8787  -10.3668 O.2       9 UNK        -0.5390 
     59 N          30.5763   -2.3072   -8.3046 N.am      10 UNK        -0.4204 
     60 CA         31.4987   -3.1282   -7.5183 C.3       10 UNK         0.0237 
     61 CB         30.8571   -3.4251   -6.1533 C.3       10 UNK        -0.1985 
     62 C          32.8906   -2.4902   -7.3350 C.2       10 UNK         0.4970 
     63 O          33.8265   -3.2113   -6.9865 O.2       10 UNK        -0.4914 
     64 N          33.0092   -1.1731   -7.5464 N.am      11 UNK        -0.4285 
     65 CA         34.2580   -0.4096   -7.4243 C.3       11 UNK         0.1007 
     66 C          35.0099   -0.3251   -8.7802 C.2       11 UNK         0.5703 
     67 N          36.2972   -0.0061   -8.7495 N.am      11 UNK        -0.7361 
     68 O          34.4502   -0.5281   -9.8565 O.2       11 UNK        -0.4986 
     69 C69        33.9968    0.9996   -6.8252 C.3       12 UNK        -0.0947 
     70 S70        33.5126    0.9203   -5.0689 S.3       12 UNK        -0.2240 
     71 C71        31.6977    0.9949   -5.1780 C.3       12 UNK         0.0194 
     72 H72        30.5496   -8.2848   -3.1788 H         1 UNK         0.0906 
     73 H73        30.5111   -8.9376   -1.5401 H         1 UNK         0.0906 
     74 H74        29.2718   -9.4069   -2.7069 H         1 UNK         0.0906 
     75 H75        29.8561   -6.1537   -3.2402 H         1 UNK         0.3140 
     76 H76        28.4405   -4.9035   -1.1064 H         1 UNK         0.1085 
     77 H77        28.5084   -2.8686   -2.5330 H         1 UNK         0.0836 
     78 H78        28.9649   -3.8116   -3.9219 H         1 UNK         0.0836 
     79 H79        31.7377   -2.1181   -0.7566 H         1 UNK         0.0731 
     80 H80        30.0158   -2.3085   -0.5379 H         1 UNK         0.0731 
     81 H81        31.7472   -1.2989   -3.7431 H         1 UNK         0.1312 
     82 H82        30.2489    2.7134   -3.6074 H         1 UNK         0.1406 
     83 H83        29.4422    0.0189   -0.3728 H         1 UNK         0.1631 
     84 H84        29.4476    3.5546   -1.3991 H         1 UNK         0.0717 
     85 H85        29.1818    2.4448   -0.0895 H         1 UNK         0.0717 
     86 H86        26.1805    4.3912   -2.5828 H         1 UNK         0.0934 
     87 H87        27.9034    4.4601   -2.8066 H         1 UNK         0.0934 
     88 H88        27.8095    2.5960   -4.4508 H         1 UNK         0.0739 
     89 H89        25.2541    2.0644   -3.4270 H         1 UNK         0.3093 
     90 H90        24.1756    0.1909   -4.1166 H         1 UNK         0.0818 
     91 H91        23.2073    1.2920   -6.8232 H         1 UNK         0.0819 
     92 H92        22.2207    0.3884   -5.6748 H         1 UNK         0.0819 
     93 H93        22.8329    1.9754   -5.2468 H         1 UNK         0.0819 
     94 H94        24.2085   -0.9561   -6.7891 H         1 UNK         0.3041 
     95 H95        24.9176   -3.0642   -7.0818 H         1 UNK         0.0784 
     96 H96        27.2657   -3.5052   -7.8603 H         1 UNK         0.0793 
     97 H97        26.9392   -1.7791   -7.7770 H         1 UNK         0.0793 
     98 H98        27.8944   -2.5465   -6.5184 H         1 UNK         0.0793 
     99 H99        26.8384   -4.5061   -5.4403 H         1 UNK         0.3024 
    100 H100       24.5392   -6.1291   -3.3665 H         1 UNK         0.1171 
    101 H101       25.3954   -8.2521   -4.3495 H         1 UNK         0.0786 
    102 H102       24.1985   -7.5249   -5.4081 H         1 UNK         0.0786 
    103 H103       25.9061   -7.3984   -5.8068 H         1 UNK         0.0786 
    104 H104       27.3475   -6.4969   -4.0024 H         1 UNK         0.2977 
    105 H105       24.7451    4.0793   -5.2888 H         1 UNK         0.3127 
    106 H106       25.8081    6.3956   -6.6476 H         1 UNK         0.0770 
    107 H107       23.0890    4.9909   -6.8821 H         1 UNK         0.0814 
    108 H108       23.4807    6.5771   -7.5298 H         1 UNK         0.0814 
    109 H109       23.4738    6.3252   -5.7930 H         1 UNK         0.0814 
    110 H110       25.2850    3.0240   -7.5605 H         1 UNK         0.2983 
    111 H111       25.7213    3.5229  -10.4445 H         1 UNK         0.0947 
    112 H112       25.4393    1.0591  -10.6269 H         1 UNK         0.0806 
    113 H113       24.0762    1.7764   -9.7846 H         1 UNK         0.0806 
    114 H114       25.3156    0.9110   -8.8800 H         1 UNK         0.0806 
    115 H115       27.2768    2.0206   -7.6206 H         1 UNK         0.3000 
    116 H116       29.3302    1.6106   -6.9847 H         1 UNK         0.0850 
    117 H117       31.1842    3.0958   -7.6980 H         1 UNK         0.0810 
    118 H118       29.7192    4.0333   -7.4714 H         1 UNK         0.0810 
    119 H119       30.2670    3.6256   -9.0959 H         1 UNK         0.0810 
    120 H120       28.1976    0.0284   -9.2894 H         1 UNK         0.3040 
    121 H121       30.1709   -0.7261  -11.1088 H         1 UNK         0.0766 
    122 H122       28.6840   -2.6797  -11.5592 H         1 UNK         0.0812 
    123 H123       27.7547   -1.1999  -11.4043 H         1 UNK         0.0812 
    124 H124       27.7911   -2.3649  -10.0803 H         1 UNK         0.0812 
    125 H125       29.9342   -1.7205   -7.7944 H         1 UNK         0.3205 
    126 H126       31.6466   -4.0792   -8.0347 H         1 UNK         0.0754 
    127 H127       31.5240   -4.0190   -5.5265 H         1 UNK         0.0769 
    128 H128       29.9352   -3.9949   -6.2676 H         1 UNK         0.0769 
    129 H129       30.6251   -2.5111   -5.6056 H         1 UNK         0.0769 
    130 H130       32.2345   -0.6551   -7.9481 H         1 UNK         0.2981 
    131 H131       34.9240   -0.9385   -6.7393 H         1 UNK         0.0541 
    132 H132       36.7719    0.1664   -7.8769 H         1 UNK         0.3459 
    133 H133       36.8052    0.0606   -9.6177 H         1 UNK         0.3459 
    134 H134       33.2433    1.5421   -7.3972 H         1 UNK         0.0612 
    135 H135       34.9010    1.6090   -6.8696 H         1 UNK         0.0612 
    136 H136       31.4074    1.9741   -5.5594 H         1 UNK         0.0624 
    137 H137       31.3388    0.2564   -5.8946 H         1 UNK         0.0624 
@<TRIPOS>BOND
     1    1    2 1    
     2    1   72 1    
     3    1   73 1    
     4    1   74 1    
     5    2    3 2    
     6    2    4 am   BACKBONE|DICT|INTERRES
     7    4    5 1    
     8    4   75 1    
     9    5    6 1    
    10    5   35 1    
    11    5   76 1    
    12    6    7 1    
    13    6   77 1    
    14    6   78 1    
    15    7    8 1    
    16    8    9 1    
    17    8   79 1    
    18    8   80 1    
    19    9   10 ar   
    20    9   14 ar   
    21   10   11 ar   
    22   10   81 1    
    23   11   12 ar   
    24   11   71 1    
    25   12   13 ar   
    26   12   82 1    
    27   13   14 ar   
    28   13   15 1    
    29   14   83 1    
    30   15   16 1    
    31   15   84 1    
    32   15   85 1    
    33   16   17 1    
    34   17   18 1    
    35   17   86 1    
    36   17   87 1    
    37   18   19 1    
    38   18   37 1    
    39   18   88 1    
    40   19   20 am   BACKBONE|DICT|INTERRES
    41   19   89 1    
    42   20   21 2    
    43   20   22 1    
    44   22   23 1    
    45   22   24 1    
    46   22   90 1    
    47   23   91 1    
    48   23   92 1    
    49   23   93 1    
    50   24   25 am   BACKBONE|DICT|INTERRES
    51   24   94 1    
    52   25   26 2    
    53   25   27 1    
    54   27   28 1    
    55   27   29 1    
    56   27   95 1    
    57   28   96 1    
    58   28   97 1    
    59   28   98 1    
    60   29   30 am   BACKBONE|DICT|INTERRES
    61   29   99 1    
    62   30   31 2    
    63   30   32 1    
    64   32   33 1    
    65   32   34 1    
    66   32  100 1    
    67   33  101 1    
    68   33  102 1    
    69   33  103 1    
    70   34   35 am   BACKBONE|DICT|INTERRES
    71   34  104 1    
    72   35   36 2    
    73   37   38 2    
    74   37   39 am   BACKBONE|DICT|INTERRES
    75   39   40 1    
    76   39  105 1    
    77   40   41 1    
    78   40   42 1    
    79   40  106 1    
    80   41  107 1    
    81   41  108 1    
    82   41  109 1    
    83   42   43 2    
    84   42   44 am   BACKBONE|DICT|INTERRES
    85   44   45 1    
    86   44  110 1    
    87   45   46 1    
    88   45   47 1    
    89   45  111 1    
    90   46  112 1    
    91   46  113 1    
    92   46  114 1    
    93   47   48 2    
    94   47   49 am   BACKBONE|DICT|INTERRES
    95   49   50 1    
    96   49  115 1    
    97   50   51 1    
    98   50   52 1    
    99   50  116 1    
   100   51  117 1    
   101   51  118 1    
   102   51  119 1    
   103   52   53 2    
   104   52   54 am   BACKBONE|DICT|INTERRES
   105   54   55 1    
   106   54  120 1    
   107   55   56 1    
   108   55   57 1    
   109   55  121 1    
   110   56  122 1    
   111   56  123 1    
   112   56  124 1    
   113   57   58 2    
   114   57   59 am   BACKBONE|DICT|INTERRES
   115   59   60 1    
   116   59  125 1    
   117   60   61 1    
   118   60   62 1    
   119   60  126 1    
   120   61  127 1    
   121   61  128 1    
   122   61  129 1    
   123   62   63 2    
   124   62   64 am   BACKBONE|DICT|INTERRES
   125   64   65 1    
   126   64  130 1    
   127   65   66 1    
   128   65   69 1    
   129   65  131 1    
   130   66   67 am   BACKBONE|DICT|INTERRES
   131   66   68 2    
   132   67  132 1    
   133   67  133 1    
   134   69   70 1    
   135   69  134 1    
   136   69  135 1    
   137   70   71 1    
   138   71  136 1    
   139   71  137 1    
@<TRIPOS>SUBSTRUCTURE
     1 UNK         1 GROUP             0       ****    0 ROOT    
