@<TRIPOS>MOLECULE
3R137
137   139    1
SMALL
USER_CHARGES


@<TRIPOS>ATOM
      1 CA         26.1565   -6.3109   -5.1115 C.3       0 UNK        -0.2020 
      2 C          26.1894   -5.5095   -3.8197 C.2       0 UNK         0.4855 
      3 O          25.1489   -5.0238   -3.3750 O.2       0 UNK        -0.5197 
      4 N          27.3756   -5.3538   -3.2159 N.am      1 UNK        -0.4892 
      5 CA         27.5929   -4.5746   -1.9923 C.3       1 UNK         0.0835 
      6 C6         29.0285   -4.7638   -1.4505 C.3       12 UNK        -0.0855 
      7 S7         29.2468   -4.0634    0.2250 S.3       12 UNK        -0.2931 
      8 C8         30.9952   -3.5472    0.2133 C.3       12 UNK         0.0378 
      9 C9         31.2812   -2.4759   -0.8304 C.ar      12 UNK        -0.0802 
     10 C10        31.9480   -2.8129   -2.0104 C.ar      12 UNK        -0.0944 
     11 C11        32.2015   -1.8453   -2.9837 C.ar      12 UNK        -0.0787 
     12 C12        31.8105   -0.5223   -2.7603 C.ar      12 UNK        -0.0862 
     13 C13        31.1386   -0.1681   -1.5833 C.ar      12 UNK        -0.0733 
     14 C14        30.8816   -1.1523   -0.6213 C.ar      12 UNK        -0.0832 
     15 C15        30.6870    1.2690   -1.3249 C.3       12 UNK         0.0240 
     16 S16        30.0226    2.1353   -2.7907 S.3       12 UNK        -0.2522 
     17 C17        28.6271    1.0663   -3.2759 C.3       12 UNK        -0.0967 
     18 CA         28.5084    0.9409   -4.8183 C.3       5 UNK         0.0660 
     19 N          28.0264   -0.3813   -5.2188 N.am      5 UNK        -0.4015 
     20 C          27.9893   -0.8402   -6.4771 C.2       4 UNK         0.4946 
     21 O          28.4750   -0.2493   -7.4437 O.2       4 UNK        -0.5353 
     22 CA         27.2433   -2.1669   -6.6984 C.3       4 UNK         0.0277 
     23 CB         28.1854   -3.3697   -6.5315 C.3       4 UNK        -0.1981 
     24 N          26.0904   -2.3069   -5.8040 N.am      4 UNK        -0.4209 
     25 C          24.9593   -1.5956   -5.9226 C.2       3 UNK         0.4942 
     26 O          24.7487   -0.7956   -6.8324 O.2       3 UNK        -0.5208 
     27 CA         23.9044   -1.7678   -4.8177 C.3       3 UNK         0.0250 
     28 CB         22.9982   -2.9736   -5.1110 C.3       3 UNK        -0.1990 
     29 N          24.5038   -1.8958   -3.4860 N.am      3 UNK        -0.4232 
     30 C          25.1306   -0.8899   -2.8552 C.2       2 UNK         0.4993 
     31 O          25.2330    0.2431   -3.3205 O.2       2 UNK        -0.5286 
     32 CA         25.8062   -1.1943   -1.5072 C.3       2 UNK         0.0209 
     33 CB         24.8354   -0.9281   -0.3464 C.3       2 UNK        -0.1931 
     34 N          26.3327   -2.5564   -1.4026 N.am      2 UNK        -0.4546 
     35 C          27.2430   -3.0901   -2.2283 C.2       1 UNK         0.5154 
     36 O          27.7542   -2.4787   -3.1705 O.2       1 UNK        -0.5181 
     37 C          27.6390    2.0691   -5.4183 C.2       5 UNK         0.5014 
     38 O          28.1797    3.0162   -5.9895 O.2       5 UNK        -0.5248 
     39 N          26.3089    1.9405   -5.2865 N.am      6 UNK        -0.4434 
     40 CA         25.3128    2.8887   -5.7933 C.3       6 UNK         0.0363 
     41 CB         23.9283    2.5339   -5.2293 C.3       6 UNK        -0.1936 
     42 C          25.2567    2.9718   -7.3270 C.2       6 UNK         0.5081 
     43 O          25.0024    4.0543   -7.8579 O.2       6 UNK        -0.5248 
     44 N          25.5117    1.8538   -8.0210 N.am      7 UNK        -0.4718 
     45 CA         25.5891    1.7470   -9.4833 C.3       7 UNK         0.0273 
     46 CB         25.4529    0.2647   -9.8778 C.3       7 UNK        -0.1935 
     47 C          26.8709    2.3900  -10.0546 C.2       7 UNK         0.5018 
     48 O          27.6571    1.7153  -10.7233 O.2       7 UNK        -0.5186 
     49 N          27.0695    3.6810   -9.7532 N.am      8 UNK        -0.4240 
     50 CA         28.2317    4.5377  -10.0207 C.3       8 UNK         0.0235 
     51 CB         28.4924    4.7010  -11.5321 C.3       8 UNK        -0.2000 
     52 C          29.4954    4.0915   -9.2644 C.2       8 UNK         0.4941 
     53 O          30.0237    4.8694   -8.4698 O.2       8 UNK        -0.5273 
     54 N          29.9293    2.8557   -9.5300 N.am      9 UNK        -0.4262 
     55 CA         31.0414    2.1116   -8.9452 C.3       9 UNK         0.0264 
     56 CB         32.3534    2.9304   -8.9007 C.3       9 UNK        -0.1955 
     57 C          31.2006    0.8478   -9.7988 C.2       9 UNK         0.5031 
     58 O          32.1092    0.7787  -10.6297 O.2       9 UNK        -0.5390 
     59 N          30.2894   -0.1194   -9.6229 N.am      10 UNK        -0.4204 
     60 CA         30.3208   -1.4011  -10.3405 C.3       10 UNK         0.0237 
     61 CB         28.9242   -2.0406  -10.3166 C.3       10 UNK        -0.1985 
     62 C          31.3885   -2.3701   -9.7951 C.2       10 UNK         0.4970 
     63 O          31.7071   -3.3524  -10.4662 O.2       10 UNK        -0.4914 
     64 N          31.9270   -2.0687   -8.6100 N.am      11 UNK        -0.4285 
     65 CA         33.0643   -2.7320   -7.9686 C.3       11 UNK         0.1007 
     66 C          34.1580   -1.6982   -7.5893 C.2       11 UNK         0.5703 
     67 N          35.3772   -2.1535   -7.3346 N.am      11 UNK        -0.7361 
     68 O          33.9132   -0.4953   -7.5037 O.2       11 UNK        -0.4986 
     69 C69        32.6199   -3.5974   -6.7587 C.3       12 UNK        -0.0947 
     70 S70        31.6141   -2.7140   -5.5148 S.3       12 UNK        -0.2240 
     71 C71        32.8696   -2.2461   -4.2866 C.3       12 UNK         0.0194 
     72 H72        25.7096   -5.7182   -5.9094 H         1 UNK         0.0906 
     73 H73        27.1537   -6.6132   -5.4306 H         1 UNK         0.0906 
     74 H74        25.5547   -7.2095   -4.9783 H         1 UNK         0.0906 
     75 H75        28.2034   -5.7516   -3.6363 H         1 UNK         0.3140 
     76 H76        26.9036   -4.9756   -1.2455 H         1 UNK         0.1085 
     77 H77        29.2677   -5.8268   -1.3916 H         1 UNK         0.0836 
     78 H78        29.7456   -4.3339   -2.1492 H         1 UNK         0.0836 
     79 H79        31.6244   -4.4238    0.0504 H         1 UNK         0.0731 
     80 H80        31.2568   -3.1663    1.2016 H         1 UNK         0.0731 
     81 H81        32.2494   -3.8369   -2.1849 H         1 UNK         0.1312 
     82 H82        32.0103    0.2253   -3.5155 H         1 UNK         0.1406 
     83 H83        30.3626   -0.8940    0.2921 H         1 UNK         0.1631 
     84 H84        31.5373    1.8351   -0.9429 H         1 UNK         0.0717 
     85 H85        29.9247    1.2938   -0.5445 H         1 UNK         0.0717 
     86 H86        28.7836    0.0805   -2.8364 H         1 UNK         0.0934 
     87 H87        27.7099    1.4426   -2.8184 H         1 UNK         0.0934 
     88 H88        29.5060    1.0328   -5.2544 H         1 UNK         0.0739 
     89 H89        27.6948   -0.9921   -4.4786 H         1 UNK         0.3093 
     90 H90        26.8718   -2.1660   -7.7250 H         1 UNK         0.0818 
     91 H91        28.5448   -3.4670   -5.5068 H         1 UNK         0.0819 
     92 H92        27.6916   -4.3010   -6.8064 H         1 UNK         0.0819 
     93 H93        29.0638   -3.2718   -7.1704 H         1 UNK         0.0819 
     94 H94        26.2096   -2.8938   -4.9903 H         1 UNK         0.3041 
     95 H95        23.2786   -0.8727   -4.8168 H         1 UNK         0.0784 
     96 H96        22.4863   -2.8488   -6.0662 H         1 UNK         0.0793 
     97 H97        23.5619   -3.9049   -5.1665 H         1 UNK         0.0793 
     98 H98        22.2309   -3.0901   -4.3456 H         1 UNK         0.0793 
     99 H99        24.4996   -2.8172   -3.0651 H         1 UNK         0.3024 
    100 H100       26.6518   -0.5104   -1.4089 H         1 UNK         0.1171 
    101 H101       25.3293   -1.0423    0.6189 H         1 UNK         0.0786 
    102 H102       24.4461    0.0903   -0.3898 H         1 UNK         0.0786 
    103 H103       23.9805   -1.6052   -0.3701 H         1 UNK         0.0786 
    104 H104       25.9566   -3.1285   -0.6599 H         1 UNK         0.2977 
    105 H105       25.9455    1.1699   -4.7275 H         1 UNK         0.3127 
    106 H106       25.5858    3.8793   -5.4236 H         1 UNK         0.0770 
    107 H107       23.6128    1.5367   -5.5380 H         1 UNK         0.0814 
    108 H108       23.1715    3.2386   -5.5765 H         1 UNK         0.0814 
    109 H109       23.9234    2.5648   -4.1396 H         1 UNK         0.0814 
    110 H110       25.6549    0.9938   -7.5026 H         1 UNK         0.2983 
    111 H111       24.7427    2.2857   -9.9145 H         1 UNK         0.0947 
    112 H112       25.4894    0.1388  -10.9607 H         1 UNK         0.0806 
    113 H113       24.5049   -0.1510   -9.5362 H         1 UNK         0.0806 
    114 H114       26.2550   -0.3373   -9.4493 H         1 UNK         0.0806 
    115 H115       26.3631    4.0961   -9.1489 H         1 UNK         0.3000 
    116 H116       27.9649    5.5214   -9.6306 H         1 UNK         0.0850 
    117 H117       29.3117    5.3988  -11.7098 H         1 UNK         0.0810 
    118 H118       27.6145    5.0960  -12.0431 H         1 UNK         0.0810 
    119 H119       28.7615    3.7597  -12.0119 H         1 UNK         0.0810 
    120 H120       29.3476    2.3141  -10.1685 H         1 UNK         0.3040 
    121 H121       30.7684    1.8152   -7.9304 H         1 UNK         0.0766 
    122 H122       32.3061    3.7328   -8.1656 H         1 UNK         0.0812 
    123 H123       32.5876    3.3724   -9.8697 H         1 UNK         0.0812 
    124 H124       33.1959    2.2979   -8.6163 H         1 UNK         0.0812 
    125 H125       29.5654   -0.0136   -8.9101 H         1 UNK         0.3205 
    126 H126       30.5726   -1.2026  -11.3845 H         1 UNK         0.0754 
    127 H127       28.9024   -2.9539  -10.9125 H         1 UNK         0.0769 
    128 H128       28.1734   -1.3658  -10.7284 H         1 UNK         0.0769 
    129 H129       28.6215   -2.3054   -9.3061 H         1 UNK         0.0769 
    130 H130       31.6285   -1.2215   -8.1492 H         1 UNK         0.2981 
    131 H131       33.5315   -3.3980   -8.6965 H         1 UNK         0.0541 
    132 H132       35.5936   -3.1360   -7.3974 H         1 UNK         0.3459 
    133 H133       36.0991   -1.4976   -7.0809 H         1 UNK         0.3459 
    134 H134       33.4793   -4.0652   -6.2760 H         1 UNK         0.0612 
    135 H135       32.0124   -4.4257   -7.1258 H         1 UNK         0.0612 
    136 H136       33.5506   -3.0807   -4.1135 H         1 UNK         0.0624 
    137 H137       33.4729   -1.4236   -4.6729 H         1 UNK         0.0624 
@<TRIPOS>BOND
     1    1    2 1    
     2    1   72 1    
     3    1   73 1    
     4    1   74 1    
     5    2    3 2    
     6    2    4 am   BACKBONE|DICT|INTERRES
     7    4    5 1    
     8    4   75 1    
     9    5    6 1    
    10    5   35 1    
    11    5   76 1    
    12    6    7 1    
    13    6   77 1    
    14    6   78 1    
    15    7    8 1    
    16    8    9 1    
    17    8   79 1    
    18    8   80 1    
    19    9   10 ar   
    20    9   14 ar   
    21   10   11 ar   
    22   10   81 1    
    23   11   12 ar   
    24   11   71 1    
    25   12   13 ar   
    26   12   82 1    
    27   13   14 ar   
    28   13   15 1    
    29   14   83 1    
    30   15   16 1    
    31   15   84 1    
    32   15   85 1    
    33   16   17 1    
    34   17   18 1    
    35   17   86 1    
    36   17   87 1    
    37   18   19 1    
    38   18   37 1    
    39   18   88 1    
    40   19   20 am   BACKBONE|DICT|INTERRES
    41   19   89 1    
    42   20   21 2    
    43   20   22 1    
    44   22   23 1    
    45   22   24 1    
    46   22   90 1    
    47   23   91 1    
    48   23   92 1    
    49   23   93 1    
    50   24   25 am   BACKBONE|DICT|INTERRES
    51   24   94 1    
    52   25   26 2    
    53   25   27 1    
    54   27   28 1    
    55   27   29 1    
    56   27   95 1    
    57   28   96 1    
    58   28   97 1    
    59   28   98 1    
    60   29   30 am   BACKBONE|DICT|INTERRES
    61   29   99 1    
    62   30   31 2    
    63   30   32 1    
    64   32   33 1    
    65   32   34 1    
    66   32  100 1    
    67   33  101 1    
    68   33  102 1    
    69   33  103 1    
    70   34   35 am   BACKBONE|DICT|INTERRES
    71   34  104 1    
    72   35   36 2    
    73   37   38 2    
    74   37   39 am   BACKBONE|DICT|INTERRES
    75   39   40 1    
    76   39  105 1    
    77   40   41 1    
    78   40   42 1    
    79   40  106 1    
    80   41  107 1    
    81   41  108 1    
    82   41  109 1    
    83   42   43 2    
    84   42   44 am   BACKBONE|DICT|INTERRES
    85   44   45 1    
    86   44  110 1    
    87   45   46 1    
    88   45   47 1    
    89   45  111 1    
    90   46  112 1    
    91   46  113 1    
    92   46  114 1    
    93   47   48 2    
    94   47   49 am   BACKBONE|DICT|INTERRES
    95   49   50 1    
    96   49  115 1    
    97   50   51 1    
    98   50   52 1    
    99   50  116 1    
   100   51  117 1    
   101   51  118 1    
   102   51  119 1    
   103   52   53 2    
   104   52   54 am   BACKBONE|DICT|INTERRES
   105   54   55 1    
   106   54  120 1    
   107   55   56 1    
   108   55   57 1    
   109   55  121 1    
   110   56  122 1    
   111   56  123 1    
   112   56  124 1    
   113   57   58 2    
   114   57   59 am   BACKBONE|DICT|INTERRES
   115   59   60 1    
   116   59  125 1    
   117   60   61 1    
   118   60   62 1    
   119   60  126 1    
   120   61  127 1    
   121   61  128 1    
   122   61  129 1    
   123   62   63 2    
   124   62   64 am   BACKBONE|DICT|INTERRES
   125   64   65 1    
   126   64  130 1    
   127   65   66 1    
   128   65   69 1    
   129   65  131 1    
   130   66   67 am   BACKBONE|DICT|INTERRES
   131   66   68 2    
   132   67  132 1    
   133   67  133 1    
   134   69   70 1    
   135   69  134 1    
   136   69  135 1    
   137   70   71 1    
   138   71  136 1    
   139   71  137 1    
@<TRIPOS>SUBSTRUCTURE
     1 UNK         1 GROUP             0       ****    0 ROOT    
