@<TRIPOS>MOLECULE
3R137
137   139    1
SMALL
USER_CHARGES


@<TRIPOS>ATOM
      1 CA         29.6891   -5.7470   -8.0499 C.3       0 UNK        -0.2020 
      2 C          29.0003   -6.0803   -6.7349 C.2       0 UNK         0.4855 
      3 O          28.3024   -7.0904   -6.6461 O.2       0 UNK        -0.5197 
      4 N          29.1939   -5.2358   -5.7136 N.am      1 UNK        -0.4892 
      5 CA         28.6224   -5.3762   -4.3662 C.3       1 UNK         0.0835 
      6 C6         29.2647   -4.3817   -3.3651 C.3       12 UNK        -0.0855 
      7 S7         31.0802   -4.5527   -3.2643 S.3       12 UNK        -0.2931 
      8 C8         31.4382   -3.8080   -1.6417 C.3       12 UNK         0.0378 
      9 C9         31.2500   -2.2966   -1.6467 C.ar      12 UNK        -0.0802 
     10 C10        32.3097   -1.4520   -1.9970 C.ar      12 UNK        -0.0944 
     11 C11        32.1495   -0.0622   -1.9671 C.ar      12 UNK        -0.0787 
     12 C12        30.9181    0.4784   -1.5855 C.ar      12 UNK        -0.0862 
     13 C13        29.8423   -0.3549   -1.2689 C.ar      12 UNK        -0.0733 
     14 C14        30.0185   -1.7414   -1.2856 C.ar      12 UNK        -0.0832 
     15 C15        28.4777    0.2430   -0.9534 C.3       12 UNK         0.0240 
     16 S16        27.7741    1.1324   -2.3826 S.3       12 UNK        -0.2522 
     17 C17        27.9363   -0.1233   -3.7025 C.3       12 UNK        -0.0967 
     18 CA         27.2126    0.2342   -5.0238 C.3       5 UNK         0.0660 
     19 N          25.7914    0.5283   -4.8082 N.am      5 UNK        -0.4015 
     20 C          24.8888    0.8216   -5.7529 C.2       4 UNK         0.4946 
     21 O          25.1649    0.9508   -6.9471 O.2       4 UNK        -0.5353 
     22 CA         23.4332    0.9475   -5.2747 C.3       4 UNK         0.0277 
     23 CB         22.4696    1.3736   -6.3975 C.3       4 UNK        -0.1981 
     24 N          23.0069   -0.3465   -4.7454 N.am      4 UNK        -0.4209 
     25 C          22.9488   -0.6721   -3.4471 C.2       3 UNK         0.4942 
     26 O          23.1360    0.1263   -2.5289 O.2       3 UNK        -0.5208 
     27 CA         22.6891   -2.1555   -3.1231 C.3       3 UNK         0.0250 
     28 CB         21.1799   -2.4429   -3.0676 C.3       3 UNK        -0.1990 
     29 N          23.3316   -3.0690   -4.0773 N.am      3 UNK        -0.4232 
     30 C          24.6583   -3.1734   -4.2431 C.2       2 UNK         0.4993 
     31 O          25.4805   -2.5501   -3.5691 O.2       2 UNK        -0.5286 
     32 CA         25.1341   -4.0730   -5.3976 C.3       2 UNK         0.0209 
     33 CB         24.9200   -3.3585   -6.7439 C.3       2 UNK        -0.1931 
     34 N          26.5523   -4.4203   -5.2833 N.am      2 UNK        -0.4546 
     35 C          27.0854   -5.2222   -4.3502 C.2       1 UNK         0.5154 
     36 O          26.4217   -5.8309   -3.5088 O.2       1 UNK        -0.5181 
     37 C          27.9749    1.3197   -5.8120 C.2       5 UNK         0.5014 
     38 O          28.7957    0.9807   -6.6672 O.2       5 UNK        -0.5248 
     39 N          27.6710    2.5948   -5.5331 N.am      6 UNK        -0.4434 
     40 CA         28.2537    3.7543   -6.2091 C.3       6 UNK         0.0363 
     41 CB         27.9538    5.0236   -5.3965 C.3       6 UNK        -0.1936 
     42 C          27.7664    3.9133   -7.6591 C.2       6 UNK         0.5081 
     43 O          28.5503    4.3299   -8.5110 O.2       6 UNK        -0.5248 
     44 N          26.4987    3.5641   -7.9236 N.am      7 UNK        -0.4718 
     45 CA         25.9024    3.5847   -9.2636 C.3       7 UNK         0.0273 
     46 CB         24.3697    3.5788   -9.1550 C.3       7 UNK        -0.1935 
     47 C          26.3905    2.4048  -10.1172 C.2       7 UNK         0.5018 
     48 O          26.6379    2.5785  -11.3107 O.2       7 UNK        -0.5186 
     49 N          26.5570    1.2387   -9.4774 N.am      8 UNK        -0.4240 
     50 CA         27.1621    0.0388  -10.0605 C.3       8 UNK         0.0235 
     51 CB         26.8684   -1.1583   -9.1410 C.3       8 UNK        -0.2000 
     52 C          28.6796    0.1682  -10.2995 C.2       8 UNK         0.4941 
     53 O          29.2291   -0.6283  -11.0610 O.2       8 UNK        -0.5273 
     54 N          29.3218    1.1428   -9.6347 N.am      9 UNK        -0.4262 
     55 CA         30.7655    1.4036   -9.5871 C.3       9 UNK         0.0264 
     56 CB         31.2999    1.8393  -10.9676 C.3       9 UNK        -0.1955 
     57 C          31.5448    0.2227   -8.9771 C.2       9 UNK         0.5031 
     58 O          32.6226   -0.1310   -9.4611 O.2       9 UNK        -0.5390 
     59 N          30.9762   -0.3678   -7.9158 N.am      10 UNK        -0.4204 
     60 CA         31.4746   -1.5729   -7.2469 C.3       10 UNK         0.0237 
     61 CB         30.4338   -2.0358   -6.2190 C.3       10 UNK        -0.1985 
     62 C          32.8444   -1.4023   -6.5686 C.2       10 UNK         0.4970 
     63 O          33.5531   -2.3934   -6.3902 O.2       10 UNK        -0.4914 
     64 N          33.1877   -0.1610   -6.2070 N.am      11 UNK        -0.4285 
     65 CA         34.4618    0.2118   -5.5776 C.3       11 UNK         0.1007 
     66 C          35.6941    0.1475   -6.5278 C.2       11 UNK         0.5703 
     67 N          35.5224    0.0113   -7.8388 N.am      11 UNK        -0.7361 
     68 O          36.8293    0.2191   -6.0630 O.2       11 UNK        -0.4986 
     69 C69        34.3813    1.5931   -4.8710 C.3       12 UNK        -0.0947 
     70 S70        32.8864    1.8174   -3.8492 S.3       12 UNK        -0.2240 
     71 C71        33.2957    0.8624   -2.3533 C.3       12 UNK         0.0194 
     72 H72        28.9482   -5.6117   -8.8374 H         1 UNK         0.0906 
     73 H73        30.3522   -6.5607   -8.3424 H         1 UNK         0.0906 
     74 H74        30.2822   -4.8350   -7.9828 H         1 UNK         0.0906 
     75 H75        29.8242   -4.4567   -5.8299 H         1 UNK         0.3140 
     76 H76        28.8401   -6.3906   -4.0240 H         1 UNK         0.1085 
     77 H77        28.8474   -4.5369   -2.3681 H         1 UNK         0.0836 
     78 H78        29.0305   -3.3509   -3.6392 H         1 UNK         0.0836 
     79 H79        30.8107   -4.2700   -0.8779 H         1 UNK         0.0731 
     80 H80        32.4672   -4.0470   -1.3686 H         1 UNK         0.0731 
     81 H81        33.2589   -1.8793   -2.2906 H         1 UNK         0.1312 
     82 H82        30.7837    1.5516   -1.5767 H         1 UNK         0.1406 
     83 H83        29.1922   -2.3909   -1.0310 H         1 UNK         0.1631 
     84 H84        28.5696    0.9328   -0.1135 H         1 UNK         0.0717 
     85 H85        27.7755   -0.5320   -0.6420 H         1 UNK         0.0717 
     86 H86        28.9973   -0.2968   -3.8841 H         1 UNK         0.0934 
     87 H87        27.5517   -1.0681   -3.3182 H         1 UNK         0.0934 
     88 H88        27.2365   -0.6598   -5.6501 H         1 UNK         0.0739 
     89 H89        25.4690    0.4232   -3.8558 H         1 UNK         0.3093 
     90 H90        23.4021    1.7127   -4.4960 H         1 UNK         0.0818 
     91 H91        22.7192    2.3697   -6.7631 H         1 UNK         0.0819 
     92 H92        22.5041    0.6910   -7.2478 H         1 UNK         0.0819 
     93 H93        21.4401    1.4122   -6.0414 H         1 UNK         0.0819 
     94 H94        22.8655   -1.0799   -5.4248 H         1 UNK         0.3041 
     95 H95        23.1116   -2.3544   -2.1356 H         1 UNK         0.0784 
     96 H96        20.6854   -1.7883   -2.3482 H         1 UNK         0.0793 
     97 H97        20.7001   -2.2854   -4.0344 H         1 UNK         0.0793 
     98 H98        20.9823   -3.4691   -2.7569 H         1 UNK         0.0793 
     99 H99        22.7183   -3.6174   -4.6638 H         1 UNK         0.3024 
    100 H100       24.5538   -4.9984   -5.3800 H         1 UNK         0.1171 
    101 H101       23.8632   -3.1585   -6.9239 H         1 UNK         0.0786 
    102 H102       25.4416   -2.4009   -6.7761 H         1 UNK         0.0786 
    103 H103       25.2762   -3.9634   -7.5782 H         1 UNK         0.0786 
    104 H104       27.1835   -3.9671   -5.9257 H         1 UNK         0.2977 
    105 H105       27.0036    2.7758   -4.7972 H         1 UNK         0.3127 
    106 H106       29.3372    3.6176   -6.2385 H         1 UNK         0.0770 
    107 H107       26.8821    5.2090   -5.3139 H         1 UNK         0.0814 
    108 H108       28.4009    5.9009   -5.8663 H         1 UNK         0.0814 
    109 H109       28.3627    4.9547   -4.3882 H         1 UNK         0.0814 
    110 H110       25.9387    3.1643   -7.1832 H         1 UNK         0.2983 
    111 H111       26.2049    4.5083   -9.7627 H         1 UNK         0.0947 
    112 H112       23.9987    2.6444   -8.7345 H         1 UNK         0.0806 
    113 H113       23.9125    3.6927  -10.1388 H         1 UNK         0.0806 
    114 H114       24.0090    4.3981   -8.5330 H         1 UNK         0.0806 
    115 H115       26.2434    1.1723   -8.5113 H         1 UNK         0.3000 
    116 H116       26.6917   -0.1442  -11.0289 H         1 UNK         0.0850 
    117 H117       27.2705   -2.0825   -9.5582 H         1 UNK         0.0810 
    118 H118       25.7956   -1.3005   -9.0104 H         1 UNK         0.0810 
    119 H119       27.3123   -1.0246   -8.1541 H         1 UNK         0.0810 
    120 H120       28.7649    1.7067   -9.0065 H         1 UNK         0.3040 
    121 H121       30.8986    2.2425   -8.9022 H         1 UNK         0.0766 
    122 H122       31.2546    1.0285  -11.6953 H         1 UNK         0.0812 
    123 H123       32.3414    2.1559  -10.9000 H         1 UNK         0.0812 
    124 H124       30.7307    2.6798  -11.3647 H         1 UNK         0.0812 
    125 H125       30.1177    0.0397   -7.5460 H         1 UNK         0.3205 
    126 H126       31.5821   -2.3506   -8.0059 H         1 UNK         0.0754 
    127 H127       30.7745   -2.9377   -5.7135 H         1 UNK         0.0769 
    128 H128       29.4725   -2.2509   -6.6861 H         1 UNK         0.0769 
    129 H129       30.2784   -1.2795   -5.4510 H         1 UNK         0.0769 
    130 H130       32.5383    0.5915   -6.3766 H         1 UNK         0.2981 
    131 H131       34.6525   -0.5321   -4.8020 H         1 UNK         0.0541 
    132 H132       36.3304   -0.0315   -8.4392 H         1 UNK         0.3459 
    133 H133       34.5948   -0.0562   -8.2357 H         1 UNK         0.3459 
    134 H134       34.3838    2.3939   -5.6129 H         1 UNK         0.0612 
    135 H135       35.2607    1.7579   -4.2457 H         1 UNK         0.0612 
    136 H136       34.2120    0.2915   -2.5082 H         1 UNK         0.0624 
    137 H137       33.4981    1.5537   -1.5342 H         1 UNK         0.0624 
@<TRIPOS>BOND
     1    1    2 1    
     2    1   72 1    
     3    1   73 1    
     4    1   74 1    
     5    2    3 2    
     6    2    4 am   BACKBONE|DICT|INTERRES
     7    4    5 1    
     8    4   75 1    
     9    5    6 1    
    10    5   35 1    
    11    5   76 1    
    12    6    7 1    
    13    6   77 1    
    14    6   78 1    
    15    7    8 1    
    16    8    9 1    
    17    8   79 1    
    18    8   80 1    
    19    9   10 ar   
    20    9   14 ar   
    21   10   11 ar   
    22   10   81 1    
    23   11   12 ar   
    24   11   71 1    
    25   12   13 ar   
    26   12   82 1    
    27   13   14 ar   
    28   13   15 1    
    29   14   83 1    
    30   15   16 1    
    31   15   84 1    
    32   15   85 1    
    33   16   17 1    
    34   17   18 1    
    35   17   86 1    
    36   17   87 1    
    37   18   19 1    
    38   18   37 1    
    39   18   88 1    
    40   19   20 am   BACKBONE|DICT|INTERRES
    41   19   89 1    
    42   20   21 2    
    43   20   22 1    
    44   22   23 1    
    45   22   24 1    
    46   22   90 1    
    47   23   91 1    
    48   23   92 1    
    49   23   93 1    
    50   24   25 am   BACKBONE|DICT|INTERRES
    51   24   94 1    
    52   25   26 2    
    53   25   27 1    
    54   27   28 1    
    55   27   29 1    
    56   27   95 1    
    57   28   96 1    
    58   28   97 1    
    59   28   98 1    
    60   29   30 am   BACKBONE|DICT|INTERRES
    61   29   99 1    
    62   30   31 2    
    63   30   32 1    
    64   32   33 1    
    65   32   34 1    
    66   32  100 1    
    67   33  101 1    
    68   33  102 1    
    69   33  103 1    
    70   34   35 am   BACKBONE|DICT|INTERRES
    71   34  104 1    
    72   35   36 2    
    73   37   38 2    
    74   37   39 am   BACKBONE|DICT|INTERRES
    75   39   40 1    
    76   39  105 1    
    77   40   41 1    
    78   40   42 1    
    79   40  106 1    
    80   41  107 1    
    81   41  108 1    
    82   41  109 1    
    83   42   43 2    
    84   42   44 am   BACKBONE|DICT|INTERRES
    85   44   45 1    
    86   44  110 1    
    87   45   46 1    
    88   45   47 1    
    89   45  111 1    
    90   46  112 1    
    91   46  113 1    
    92   46  114 1    
    93   47   48 2    
    94   47   49 am   BACKBONE|DICT|INTERRES
    95   49   50 1    
    96   49  115 1    
    97   50   51 1    
    98   50   52 1    
    99   50  116 1    
   100   51  117 1    
   101   51  118 1    
   102   51  119 1    
   103   52   53 2    
   104   52   54 am   BACKBONE|DICT|INTERRES
   105   54   55 1    
   106   54  120 1    
   107   55   56 1    
   108   55   57 1    
   109   55  121 1    
   110   56  122 1    
   111   56  123 1    
   112   56  124 1    
   113   57   58 2    
   114   57   59 am   BACKBONE|DICT|INTERRES
   115   59   60 1    
   116   59  125 1    
   117   60   61 1    
   118   60   62 1    
   119   60  126 1    
   120   61  127 1    
   121   61  128 1    
   122   61  129 1    
   123   62   63 2    
   124   62   64 am   BACKBONE|DICT|INTERRES
   125   64   65 1    
   126   64  130 1    
   127   65   66 1    
   128   65   69 1    
   129   65  131 1    
   130   66   67 am   BACKBONE|DICT|INTERRES
   131   66   68 2    
   132   67  132 1    
   133   67  133 1    
   134   69   70 1    
   135   69  134 1    
   136   69  135 1    
   137   70   71 1    
   138   71  136 1    
   139   71  137 1    
@<TRIPOS>SUBSTRUCTURE
     1 UNK         1 GROUP             0       ****    0 ROOT    
