@<TRIPOS>MOLECULE
3R137
137   139    1
SMALL
USER_CHARGES


@<TRIPOS>ATOM
      1 CA         23.1805   -4.3545   -2.2687 C.3       0 UNK        -0.2020 
      2 C          23.8808   -3.1070   -1.7535 C.2       0 UNK         0.4855 
      3 O          23.2146   -2.1288   -1.4139 O.2       0 UNK        -0.5197 
      4 N          25.2188   -3.1278   -1.6958 N.am      1 UNK        -0.4892 
      5 CA         26.0742   -2.0177   -1.2631 C.3       1 UNK         0.0835 
      6 C6         27.5632   -2.4372   -1.1503 C.3       12 UNK        -0.0855 
      7 S7         28.2352   -3.2878   -2.6226 S.3       12 UNK        -0.2931 
      8 C8         29.8081   -3.9271   -1.9626 C.3       12 UNK         0.0378 
      9 C9         30.9486   -3.6520   -2.9287 C.ar      12 UNK        -0.0802 
     10 C10        31.9159   -2.6863   -2.6335 C.ar      12 UNK        -0.0944 
     11 C11        32.9499   -2.4182   -3.5357 C.ar      12 UNK        -0.0787 
     12 C12        33.0148   -3.1339   -4.7347 C.ar      12 UNK        -0.0862 
     13 C13        32.0265   -4.0651   -5.0622 C.ar      12 UNK        -0.0733 
     14 C14        31.0181   -4.3478   -4.1374 C.ar      12 UNK        -0.0832 
     15 C15        32.0318   -4.7354   -6.4283 C.3       12 UNK         0.0240 
     16 S16        31.2502   -3.6808   -7.6995 S.3       12 UNK        -0.2522 
     17 C17        29.4768   -3.7680   -7.2478 C.3       12 UNK        -0.0967 
     18 CA         28.6553   -2.4464   -7.2748 C.3       5 UNK         0.0660 
     19 N          27.3152   -2.6903   -6.7202 N.am      5 UNK        -0.4015 
     20 C          26.3161   -1.8227   -6.5024 C.2       4 UNK         0.4946 
     21 O          26.4177   -0.6006   -6.6309 O.2       4 UNK        -0.5353 
     22 CA         24.9577   -2.4378   -6.1239 C.3       4 UNK         0.0277 
     23 CB         25.0695   -3.7898   -5.3881 C.3       4 UNK        -0.1981 
     24 N          24.1848   -1.5039   -5.3070 N.am      4 UNK        -0.4209 
     25 C          22.8675   -1.2809   -5.4258 C.2       3 UNK         0.4942 
     26 O          22.1673   -1.8295   -6.2786 O.2       3 UNK        -0.5208 
     27 CA         22.1908   -0.3134   -4.4319 C.3       3 UNK         0.0250 
     28 CB         20.9523   -0.9594   -3.7843 C.3       3 UNK        -0.1990 
     29 N          23.0999    0.1260   -3.3716 N.am      3 UNK        -0.4232 
     30 C          23.7760    1.2831   -3.3756 C.2       2 UNK         0.4993 
     31 O          23.5917    2.1717   -4.2061 O.2       2 UNK        -0.5286 
     32 CA         24.8468    1.4964   -2.2847 C.3       2 UNK         0.0209 
     33 CB         24.3716    2.5359   -1.2562 C.3       2 UNK        -0.1931 
     34 N          25.2481    0.2735   -1.5789 N.am      2 UNK        -0.4546 
     35 C          25.8667   -0.7701   -2.1484 C.2       1 UNK         0.5154 
     36 O          26.1969   -0.7915   -3.3347 O.2       1 UNK        -0.5181 
     37 C          29.3966   -1.2223   -6.6878 C.2       5 UNK         0.5014 
     38 O          30.0426   -0.5011   -7.4540 O.2       5 UNK        -0.5248 
     39 N          29.2496   -0.9564   -5.3804 N.am      6 UNK        -0.4434 
     40 CA         29.8566    0.2010   -4.7117 C.3       6 UNK         0.0363 
     41 CB         29.6086    0.1332   -3.1982 C.3       6 UNK        -0.1936 
     42 C          29.3907    1.5638   -5.2551 C.2       6 UNK         0.5081 
     43 O          30.1519    2.5275   -5.1722 O.2       6 UNK        -0.5248 
     44 N          28.1714    1.6219   -5.8056 N.am      7 UNK        -0.4718 
     45 CA         27.6109    2.8075   -6.4516 C.3       7 UNK         0.0273 
     46 CB         26.2305    3.1073   -5.8524 C.3       7 UNK        -0.1935 
     47 C          27.4988    2.6112   -7.9681 C.2       7 UNK         0.5018 
     48 O          27.8789    3.5100   -8.7176 O.2       7 UNK        -0.5186 
     49 N          26.9829    1.4498   -8.3970 N.am      8 UNK        -0.4240 
     50 CA         26.6669    1.1377   -9.7938 C.3       8 UNK         0.0235 
     51 CB         25.8398   -0.1569   -9.8581 C.3       8 UNK        -0.2000 
     52 C          27.9009    1.0292  -10.7008 C.2       8 UNK         0.4941 
     53 O          27.8319    1.4492  -11.8565 O.2       8 UNK        -0.5273 
     54 N          28.9977    0.4786  -10.1654 N.am      9 UNK        -0.4262 
     55 CA         30.2792    0.3398  -10.8601 C.3       9 UNK         0.0264 
     56 CB         30.7019   -1.1401  -10.8227 C.3       9 UNK        -0.1955 
     57 C          31.3686    1.2273  -10.2367 C.2       9 UNK         0.5031 
     58 O          32.5033    1.1879  -10.7131 O.2       9 UNK        -0.5390 
     59 N          31.0386    1.9678   -9.1651 N.am      10 UNK        -0.4204 
     60 CA         31.9508    2.7370   -8.3065 C.3       10 UNK         0.0237 
     61 CB         32.4669    3.9887   -9.0476 C.3       10 UNK        -0.1985 
     62 C          33.0858    1.8631   -7.7284 C.2       10 UNK         0.4970 
     63 O          34.2431    2.2855   -7.7180 O.2       10 UNK        -0.4914 
     64 N          32.7250    0.6405   -7.3154 N.am      11 UNK        -0.4285 
     65 CA         33.6125   -0.4682   -6.9321 C.3       11 UNK         0.1007 
     66 C          34.3799   -1.1411   -8.1116 C.2       11 UNK         0.5703 
     67 N          34.1940   -0.7510   -9.3665 N.am      11 UNK        -0.7361 
     68 O          35.1453   -2.0760   -7.8875 O.2       11 UNK        -0.4986 
     69 C69        34.5579   -0.1585   -5.7298 C.3       12 UNK        -0.0947 
     70 S70        33.6868    0.1880   -4.1649 S.3       12 UNK        -0.2240 
     71 C71        33.9827   -1.3451   -3.2190 C.3       12 UNK         0.0194 
     72 H72        23.8892   -5.1210   -2.5814 H         1 UNK         0.0906 
     73 H73        22.5461   -4.7756   -1.4893 H         1 UNK         0.0906 
     74 H74        22.5502   -4.1054   -3.1219 H         1 UNK         0.0906 
     75 H75        25.7226   -3.9423   -2.0181 H         1 UNK         0.3140 
     76 H76        25.7485   -1.7560   -0.2538 H         1 UNK         0.1085 
     77 H77        28.1920   -1.5744   -0.9216 H         1 UNK         0.0836 
     78 H78        27.6713   -3.1120   -0.2994 H         1 UNK         0.0836 
     79 H79        29.7171   -5.0010   -1.7932 H         1 UNK         0.0731 
     80 H80        30.0219   -3.4802   -0.9904 H         1 UNK         0.0731 
     81 H81        31.8563   -2.1328   -1.7063 H         1 UNK         0.1312 
     82 H82        33.8148   -2.9405   -5.4345 H         1 UNK         0.1406 
     83 H83        30.2610   -5.0850   -4.3666 H         1 UNK         0.1631 
     84 H84        31.5242   -5.7005   -6.3894 H         1 UNK         0.0717 
     85 H85        33.0598   -4.9433   -6.7292 H         1 UNK         0.0717 
     86 H86        29.0140   -4.4890   -7.9237 H         1 UNK         0.0934 
     87 H87        29.3904   -4.2154   -6.2603 H         1 UNK         0.0934 
     88 H88        28.4922   -2.2011   -8.3261 H         1 UNK         0.0739 
     89 H89        27.0995   -3.6619   -6.5546 H         1 UNK         0.3093 
     90 H90        24.4400   -2.6052   -7.0706 H         1 UNK         0.0818 
     91 H91        24.0857   -4.1585   -5.0998 H         1 UNK         0.0819 
     92 H92        25.5130   -4.5612   -6.0181 H         1 UNK         0.0819 
     93 H93        25.6732   -3.7048   -4.4840 H         1 UNK         0.0819 
     94 H94        24.7331   -0.9864   -4.6246 H         1 UNK         0.3041 
     95 H95        21.8506    0.5467   -5.0122 H         1 UNK         0.0784 
     96 H96        20.2093   -1.2270   -4.5367 H         1 UNK         0.0793 
     97 H97        21.2071   -1.8694   -3.2410 H         1 UNK         0.0793 
     98 H98        20.4694   -0.2765   -3.0851 H         1 UNK         0.0793 
     99 H99        23.2805   -0.5474   -2.6318 H         1 UNK         0.3024 
    100 H100       25.7322    1.8902   -2.7888 H         1 UNK         0.1171 
    101 H101       23.4950    2.1888   -0.7077 H         1 UNK         0.0786 
    102 H102       25.1538    2.7660   -0.5325 H         1 UNK         0.0786 
    103 H103       24.1003    3.4732   -1.7445 H         1 UNK         0.0786 
    104 H104       24.9624    0.2011   -0.6125 H         1 UNK         0.2977 
    105 H105       28.6704   -1.5612   -4.8131 H         1 UNK         0.3127 
    106 H106       30.9307    0.1338   -4.8836 H         1 UNK         0.0770 
    107 H107       28.5558    0.2707   -2.9572 H         1 UNK         0.0814 
    108 H108       30.1647    0.9157   -2.6807 H         1 UNK         0.0814 
    109 H109       29.9286   -0.8180   -2.7806 H         1 UNK         0.0814 
    110 H110       27.6185    0.7700   -5.8529 H         1 UNK         0.2983 
    111 H111       28.2469    3.6788   -6.2795 H         1 UNK         0.0947 
    112 H112       25.7781    3.9811   -6.3230 H         1 UNK         0.0806 
    113 H113       26.2986    3.3140   -4.7847 H         1 UNK         0.0806 
    114 H114       25.5448    2.2703   -5.9895 H         1 UNK         0.0806 
    115 H115       26.7128    0.7485   -7.7068 H         1 UNK         0.3000 
    116 H116       26.0495    1.9527  -10.1782 H         1 UNK         0.0850 
    117 H117       25.5302   -0.3710  -10.8820 H         1 UNK         0.0810 
    118 H118       24.9346   -0.0810   -9.2550 H         1 UNK         0.0810 
    119 H119       26.4076   -1.0175   -9.5035 H         1 UNK         0.0810 
    120 H120       28.9755    0.1541   -9.2052 H         1 UNK         0.3040 
    121 H121       30.1885    0.6397  -11.9060 H         1 UNK         0.0766 
    122 H122       30.8896   -1.4820   -9.8048 H         1 UNK         0.0812 
    123 H123       31.6192   -1.3005  -11.3907 H         1 UNK         0.0812 
    124 H124       29.9369   -1.7836  -11.2571 H         1 UNK         0.0812 
    125 H125       30.0750    1.9432   -8.8650 H         1 UNK         0.3205 
    126 H126       31.3620    3.0794   -7.4555 H         1 UNK         0.0754 
    127 H127       33.0539    4.6227   -8.3819 H         1 UNK         0.0769 
    128 H128       31.6419    4.5929   -9.4249 H         1 UNK         0.0769 
    129 H129       33.1042    3.7256   -9.8926 H         1 UNK         0.0769 
    130 H130       31.7463    0.3767   -7.3962 H         1 UNK         0.2981 
    131 H131       32.9102   -1.2344   -6.6117 H         1 UNK         0.0541 
    132 H132       33.5783    0.0181   -9.6085 H         1 UNK         0.3459 
    133 H133       34.7006   -1.2239  -10.0969 H         1 UNK         0.3459 
    134 H134       35.2017    0.6918   -5.9539 H         1 UNK         0.0612 
    135 H135       35.2442   -0.9873   -5.5536 H         1 UNK         0.0612 
    136 H136       33.9498   -1.0986   -2.1568 H         1 UNK         0.0624 
    137 H137       34.9886   -1.7234   -3.4049 H         1 UNK         0.0624 
@<TRIPOS>BOND
     1    1    2 1    
     2    1   72 1    
     3    1   73 1    
     4    1   74 1    
     5    2    3 2    
     6    2    4 am   BACKBONE|DICT|INTERRES
     7    4    5 1    
     8    4   75 1    
     9    5    6 1    
    10    5   35 1    
    11    5   76 1    
    12    6    7 1    
    13    6   77 1    
    14    6   78 1    
    15    7    8 1    
    16    8    9 1    
    17    8   79 1    
    18    8   80 1    
    19    9   10 ar   
    20    9   14 ar   
    21   10   11 ar   
    22   10   81 1    
    23   11   12 ar   
    24   11   71 1    
    25   12   13 ar   
    26   12   82 1    
    27   13   14 ar   
    28   13   15 1    
    29   14   83 1    
    30   15   16 1    
    31   15   84 1    
    32   15   85 1    
    33   16   17 1    
    34   17   18 1    
    35   17   86 1    
    36   17   87 1    
    37   18   19 1    
    38   18   37 1    
    39   18   88 1    
    40   19   20 am   BACKBONE|DICT|INTERRES
    41   19   89 1    
    42   20   21 2    
    43   20   22 1    
    44   22   23 1    
    45   22   24 1    
    46   22   90 1    
    47   23   91 1    
    48   23   92 1    
    49   23   93 1    
    50   24   25 am   BACKBONE|DICT|INTERRES
    51   24   94 1    
    52   25   26 2    
    53   25   27 1    
    54   27   28 1    
    55   27   29 1    
    56   27   95 1    
    57   28   96 1    
    58   28   97 1    
    59   28   98 1    
    60   29   30 am   BACKBONE|DICT|INTERRES
    61   29   99 1    
    62   30   31 2    
    63   30   32 1    
    64   32   33 1    
    65   32   34 1    
    66   32  100 1    
    67   33  101 1    
    68   33  102 1    
    69   33  103 1    
    70   34   35 am   BACKBONE|DICT|INTERRES
    71   34  104 1    
    72   35   36 2    
    73   37   38 2    
    74   37   39 am   BACKBONE|DICT|INTERRES
    75   39   40 1    
    76   39  105 1    
    77   40   41 1    
    78   40   42 1    
    79   40  106 1    
    80   41  107 1    
    81   41  108 1    
    82   41  109 1    
    83   42   43 2    
    84   42   44 am   BACKBONE|DICT|INTERRES
    85   44   45 1    
    86   44  110 1    
    87   45   46 1    
    88   45   47 1    
    89   45  111 1    
    90   46  112 1    
    91   46  113 1    
    92   46  114 1    
    93   47   48 2    
    94   47   49 am   BACKBONE|DICT|INTERRES
    95   49   50 1    
    96   49  115 1    
    97   50   51 1    
    98   50   52 1    
    99   50  116 1    
   100   51  117 1    
   101   51  118 1    
   102   51  119 1    
   103   52   53 2    
   104   52   54 am   BACKBONE|DICT|INTERRES
   105   54   55 1    
   106   54  120 1    
   107   55   56 1    
   108   55   57 1    
   109   55  121 1    
   110   56  122 1    
   111   56  123 1    
   112   56  124 1    
   113   57   58 2    
   114   57   59 am   BACKBONE|DICT|INTERRES
   115   59   60 1    
   116   59  125 1    
   117   60   61 1    
   118   60   62 1    
   119   60  126 1    
   120   61  127 1    
   121   61  128 1    
   122   61  129 1    
   123   62   63 2    
   124   62   64 am   BACKBONE|DICT|INTERRES
   125   64   65 1    
   126   64  130 1    
   127   65   66 1    
   128   65   69 1    
   129   65  131 1    
   130   66   67 am   BACKBONE|DICT|INTERRES
   131   66   68 2    
   132   67  132 1    
   133   67  133 1    
   134   69   70 1    
   135   69  134 1    
   136   69  135 1    
   137   70   71 1    
   138   71  136 1    
   139   71  137 1    
@<TRIPOS>SUBSTRUCTURE
     1 UNK         1 GROUP             0       ****    0 ROOT    
