@<TRIPOS>MOLECULE
3R137
137   139    1
SMALL
USER_CHARGES


@<TRIPOS>ATOM
      1 CA         30.0582    1.3657   -1.5832 C.3       0 UNK        -0.2020 
      2 C          29.4550    0.0028   -1.8861 C.2       0 UNK         0.4855 
      3 O          29.1760   -0.2917   -3.0464 O.2       0 UNK        -0.5197 
      4 N          29.2627   -0.8303   -0.8545 N.am      1 UNK        -0.4892 
      5 CA         28.6432   -2.1533   -0.9689 C.3       1 UNK         0.0835 
      6 C6         29.0259   -3.0627    0.2290 C.3       12 UNK        -0.0855 
      7 S7         28.7801   -4.8405   -0.1206 S.3       12 UNK        -0.2931 
      8 C8         30.4371   -5.3567   -0.6825 C.3       12 UNK         0.0378 
      9 C9         30.8403   -4.6188   -1.9494 C.ar      12 UNK        -0.0802 
     10 C10        31.7251   -3.5393   -1.8823 C.ar      12 UNK        -0.0944 
     11 C11        32.0277   -2.7845   -3.0189 C.ar      12 UNK        -0.0787 
     12 C12        31.4509   -3.1498   -4.2446 C.ar      12 UNK        -0.0862 
     13 C13        30.5740   -4.2383   -4.3284 C.ar      12 UNK        -0.0733 
     14 C14        30.2800   -4.9746   -3.1784 C.ar      12 UNK        -0.0832 
     15 C15        29.9235   -4.6106   -5.6555 C.3       12 UNK         0.0240 
     16 S16        28.1613   -4.1373   -5.7165 S.3       12 UNK        -0.2522 
     17 C17        28.2531   -2.3257   -5.5475 C.3       12 UNK        -0.0967 
     18 CA         27.5409   -1.5605   -6.6879 C.3       5 UNK         0.0660 
     19 N          26.0957   -1.8041   -6.7353 N.am      5 UNK        -0.4015 
     20 C          25.2727   -1.3558   -7.6961 C.2       4 UNK         0.4946 
     21 O          25.6454   -0.7158   -8.6797 O.2       4 UNK        -0.5353 
     22 CA         23.7715   -1.6338   -7.5098 C.3       4 UNK         0.0277 
     23 CB         23.4296   -3.0744   -7.9229 C.3       4 UNK        -0.1981 
     24 N          23.3163   -1.3902   -6.1390 N.am      4 UNK        -0.4209 
     25 C          23.3038   -0.1869   -5.5460 C.2       3 UNK         0.4942 
     26 O          23.6230    0.8591   -6.1081 O.2       3 UNK        -0.5208 
     27 CA         22.9264   -0.1513   -4.0542 C.3       3 UNK         0.0250 
     28 CB         21.4004   -0.0868   -3.8826 C.3       3 UNK        -0.1990 
     29 N          23.4656   -1.2780   -3.2822 N.am      3 UNK        -0.4232 
     30 C          24.7673   -1.5865   -3.1990 C.2       2 UNK         0.4993 
     31 O          25.6520   -0.9644   -3.7910 O.2       2 UNK        -0.5286 
     32 CA         25.1260   -2.8359   -2.3768 C.3       2 UNK         0.0209 
     33 CB         24.8143   -4.1110   -3.1791 C.3       2 UNK        -0.1931 
     34 N          26.5416   -2.8575   -2.0061 N.am      2 UNK        -0.4546 
     35 C          27.1168   -2.0223   -1.1319 C.2       1 UNK         0.5154 
     36 O          26.4948   -1.2011   -0.4511 O.2       1 UNK        -0.5181 
     37 C          27.8474   -0.0590   -6.5685 C.2       5 UNK         0.5014 
     38 O          28.6892    0.4419   -7.3155 O.2       5 UNK        -0.5248 
     39 N          27.1450    0.6214   -5.6522 N.am      6 UNK        -0.4434 
     40 CA         27.2573    2.0571   -5.4058 C.3       6 UNK         0.0363 
     41 CB         26.4479    2.4260   -4.1529 C.3       6 UNK        -0.1936 
     42 C          26.8253    2.9056   -6.6127 C.2       6 UNK         0.5081 
     43 O          27.5234    3.8606   -6.9525 O.2       6 UNK        -0.5248 
     44 N          25.7063    2.5350   -7.2536 N.am      7 UNK        -0.4718 
     45 CA         25.1814    3.1929   -8.4541 C.3       7 UNK         0.0273 
     46 CB         23.7705    2.6678   -8.7634 C.3       7 UNK        -0.1935 
     47 C          26.0964    3.0301   -9.6780 C.2       7 UNK         0.5018 
     48 O          26.2991    3.9986  -10.4115 O.2       7 UNK        -0.5186 
     49 N          26.6411    1.8207   -9.8707 N.am      8 UNK        -0.4240 
     50 CA         27.5894    1.5117  -10.9441 C.3       8 UNK         0.0235 
     51 CB         27.6476   -0.0129  -11.1357 C.3       8 UNK        -0.2000 
     52 C          29.0049    2.0615  -10.6925 C.2       8 UNK         0.4941 
     53 O          29.7697    2.1838  -11.6500 O.2       8 UNK        -0.5273 
     54 N          29.3378    2.3322   -9.4198 N.am      9 UNK        -0.4262 
     55 CA         30.6786    2.6008   -8.8833 C.3       9 UNK         0.0264 
     56 CB         31.2426    3.9356   -9.4137 C.3       9 UNK        -0.1955 
     57 C          31.6178    1.4006   -9.1178 C.2       9 UNK         0.5031 
     58 O          32.7629    1.5763   -9.5390 O.2       9 UNK        -0.5390 
     59 N          31.0896    0.1938   -8.8651 N.am      10 UNK        -0.4204 
     60 CA         31.6739   -1.0998   -9.2374 C.3       10 UNK         0.0237 
     61 CB         30.6898   -2.2194   -8.8654 C.3       10 UNK        -0.1985 
     62 C          33.0612   -1.3812   -8.6377 C.2       10 UNK         0.4970 
     63 O          33.8814   -2.0230   -9.2952 O.2       10 UNK        -0.4914 
     64 N          33.2928   -0.8912   -7.4166 N.am      11 UNK        -0.4285 
     65 CA         34.5771   -0.9473   -6.7047 C.3       11 UNK         0.1007 
     66 C          35.4134    0.3623   -6.8179 C.2       11 UNK         0.5703 
     67 N          35.0269    1.3397   -7.6310 N.am      11 UNK        -0.7361 
     68 O          36.4526    0.4885   -6.1741 O.2       11 UNK        -0.4986 
     69 C69        34.3922   -1.4369   -5.2429 C.3       12 UNK        -0.0947 
     70 S70        33.1650   -0.4829   -4.2855 S.3       12 UNK        -0.2240 
     71 C71        32.9533   -1.5763   -2.8394 C.3       12 UNK         0.0194 
     72 H72        29.3759    2.1545   -1.8992 H         1 UNK         0.0906 
     73 H73        30.9947    1.4870   -2.1275 H         1 UNK         0.0906 
     74 H74        30.2625    1.4967   -0.5208 H         1 UNK         0.0906 
     75 H75        29.4669   -0.5185    0.0841 H         1 UNK         0.3140 
     76 H76        29.0325   -2.6014   -1.8848 H         1 UNK         0.1085 
     77 H77        28.4550   -2.7957    1.1207 H         1 UNK         0.0836 
     78 H78        30.0722   -2.9119    0.4989 H         1 UNK         0.0836 
     79 H79        31.1624   -5.1886    0.1153 H         1 UNK         0.0731 
     80 H80        30.4318   -6.4313   -0.8708 H         1 UNK         0.0731 
     81 H81        32.1508   -3.2577   -0.9287 H         1 UNK         0.1312 
     82 H82        31.6605   -2.5813   -5.1384 H         1 UNK         0.1406 
     83 H83        29.5851   -5.8019   -3.2335 H         1 UNK         0.1631 
     84 H84        30.0015   -5.6885   -5.8040 H         1 UNK         0.0717 
     85 H85        30.4545   -4.1533   -6.4903 H         1 UNK         0.0717 
     86 H86        27.8388   -2.0573   -4.5756 H         1 UNK         0.0934 
     87 H87        29.2999   -2.0238   -5.5053 H         1 UNK         0.0934 
     88 H88        27.9537   -1.9009   -7.6393 H         1 UNK         0.0739 
     89 H89        25.7014   -2.2773   -5.9369 H         1 UNK         0.3093 
     90 H90        23.2271   -0.9526   -8.1677 H         1 UNK         0.0818 
     91 H91        23.7481   -3.2705   -8.9478 H         1 UNK         0.0819 
     92 H92        23.9197   -3.8097   -7.2835 H         1 UNK         0.0819 
     93 H93        22.3553   -3.2547   -7.8802 H         1 UNK         0.0819 
     94 H94        23.0287   -2.1931   -5.5992 H         1 UNK         0.3041 
     95 H95        23.3542    0.7617   -3.6348 H         1 UNK         0.0784 
     96 H96        20.9817    0.7551   -4.4361 H         1 UNK         0.0793 
     97 H97        20.9120   -0.9915   -4.2471 H         1 UNK         0.0793 
     98 H98        21.1236    0.0472   -2.8367 H         1 UNK         0.0793 
     99 H99        22.7956   -1.8421   -2.7788 H         1 UNK         0.3024 
    100 H100       24.5312   -2.8300   -1.4605 H         1 UNK         0.1171 
    101 H101       23.7574   -4.1667   -3.4426 H         1 UNK         0.0786 
    102 H102       25.3854   -4.1550   -4.1075 H         1 UNK         0.0786 
    103 H103       25.0467   -5.0071   -2.6030 H         1 UNK         0.0786 
    104 H104       27.1290   -3.4992   -2.5182 H         1 UNK         0.2977 
    105 H105       26.5198    0.0991   -5.0394 H         1 UNK         0.3127 
    106 H106       28.3094    2.2719   -5.2063 H         1 UNK         0.0770 
    107 H107       25.3860    2.2150   -4.2828 H         1 UNK         0.0814 
    108 H108       26.5466    3.4873   -3.9221 H         1 UNK         0.0814 
    109 H109       26.7943    1.8681   -3.2821 H         1 UNK         0.0814 
    110 H110       25.1523    1.7696   -6.8764 H         1 UNK         0.2983 
    111 H111       25.1065    4.2615   -8.2412 H         1 UNK         0.0947 
    112 H112       23.7698    1.5903   -8.9338 H         1 UNK         0.0806 
    113 H113       23.3621    3.1420   -9.6569 H         1 UNK         0.0806 
    114 H114       23.0828    2.8763   -7.9437 H         1 UNK         0.0806 
    115 H115       26.3774    1.0542   -9.2565 H         1 UNK         0.3000 
    116 H116       27.2227    1.9591  -11.8706 H         1 UNK         0.0850 
    117 H117       28.3297   -0.2830  -11.9429 H         1 UNK         0.0810 
    118 H118       26.6678   -0.4184  -11.3889 H         1 UNK         0.0810 
    119 H119       27.9932   -0.5168  -10.2322 H         1 UNK         0.0810 
    120 H120       28.6333    2.1489   -8.7150 H         1 UNK         0.3040 
    121 H121       30.5620    2.6956   -7.8025 H         1 UNK         0.0766 
    122 H122       31.4440    3.8966  -10.4845 H         1 UNK         0.0812 
    123 H123       32.1812    4.1847   -8.9174 H         1 UNK         0.0812 
    124 H124       30.5502    4.7574   -9.2313 H         1 UNK         0.0812 
    125 H125       30.1615    0.1772   -8.4455 H         1 UNK         0.3205 
    126 H126       31.7907   -1.0968  -10.3231 H         1 UNK         0.0754 
    127 H127       31.1004   -3.2021   -9.1022 H         1 UNK         0.0769 
    128 H128       29.7528   -2.1220   -9.4134 H         1 UNK         0.0769 
    129 H129       30.4600   -2.2063   -7.8004 H         1 UNK         0.0769 
    130 H130       32.5669   -0.3587   -6.9604 H         1 UNK         0.2981 
    131 H131       35.2056   -1.6967   -7.1884 H         1 UNK         0.0541 
    132 H132       35.5914    2.1717   -7.6917 H         1 UNK         0.3459 
    133 H133       34.2068    1.2493   -8.2216 H         1 UNK         0.3459 
    134 H134       35.3408   -1.4299   -4.7033 H         1 UNK         0.0612 
    135 H135       34.0781   -2.4811   -5.2594 H         1 UNK         0.0612 
    136 H136       32.5584   -0.9630   -2.0281 H         1 UNK         0.0624 
    137 H137       33.9342   -1.9226   -2.5110 H         1 UNK         0.0624 
@<TRIPOS>BOND
     1    1    2 1    
     2    1   72 1    
     3    1   73 1    
     4    1   74 1    
     5    2    3 2    
     6    2    4 am   BACKBONE|DICT|INTERRES
     7    4    5 1    
     8    4   75 1    
     9    5    6 1    
    10    5   35 1    
    11    5   76 1    
    12    6    7 1    
    13    6   77 1    
    14    6   78 1    
    15    7    8 1    
    16    8    9 1    
    17    8   79 1    
    18    8   80 1    
    19    9   10 ar   
    20    9   14 ar   
    21   10   11 ar   
    22   10   81 1    
    23   11   12 ar   
    24   11   71 1    
    25   12   13 ar   
    26   12   82 1    
    27   13   14 ar   
    28   13   15 1    
    29   14   83 1    
    30   15   16 1    
    31   15   84 1    
    32   15   85 1    
    33   16   17 1    
    34   17   18 1    
    35   17   86 1    
    36   17   87 1    
    37   18   19 1    
    38   18   37 1    
    39   18   88 1    
    40   19   20 am   BACKBONE|DICT|INTERRES
    41   19   89 1    
    42   20   21 2    
    43   20   22 1    
    44   22   23 1    
    45   22   24 1    
    46   22   90 1    
    47   23   91 1    
    48   23   92 1    
    49   23   93 1    
    50   24   25 am   BACKBONE|DICT|INTERRES
    51   24   94 1    
    52   25   26 2    
    53   25   27 1    
    54   27   28 1    
    55   27   29 1    
    56   27   95 1    
    57   28   96 1    
    58   28   97 1    
    59   28   98 1    
    60   29   30 am   BACKBONE|DICT|INTERRES
    61   29   99 1    
    62   30   31 2    
    63   30   32 1    
    64   32   33 1    
    65   32   34 1    
    66   32  100 1    
    67   33  101 1    
    68   33  102 1    
    69   33  103 1    
    70   34   35 am   BACKBONE|DICT|INTERRES
    71   34  104 1    
    72   35   36 2    
    73   37   38 2    
    74   37   39 am   BACKBONE|DICT|INTERRES
    75   39   40 1    
    76   39  105 1    
    77   40   41 1    
    78   40   42 1    
    79   40  106 1    
    80   41  107 1    
    81   41  108 1    
    82   41  109 1    
    83   42   43 2    
    84   42   44 am   BACKBONE|DICT|INTERRES
    85   44   45 1    
    86   44  110 1    
    87   45   46 1    
    88   45   47 1    
    89   45  111 1    
    90   46  112 1    
    91   46  113 1    
    92   46  114 1    
    93   47   48 2    
    94   47   49 am   BACKBONE|DICT|INTERRES
    95   49   50 1    
    96   49  115 1    
    97   50   51 1    
    98   50   52 1    
    99   50  116 1    
   100   51  117 1    
   101   51  118 1    
   102   51  119 1    
   103   52   53 2    
   104   52   54 am   BACKBONE|DICT|INTERRES
   105   54   55 1    
   106   54  120 1    
   107   55   56 1    
   108   55   57 1    
   109   55  121 1    
   110   56  122 1    
   111   56  123 1    
   112   56  124 1    
   113   57   58 2    
   114   57   59 am   BACKBONE|DICT|INTERRES
   115   59   60 1    
   116   59  125 1    
   117   60   61 1    
   118   60   62 1    
   119   60  126 1    
   120   61  127 1    
   121   61  128 1    
   122   61  129 1    
   123   62   63 2    
   124   62   64 am   BACKBONE|DICT|INTERRES
   125   64   65 1    
   126   64  130 1    
   127   65   66 1    
   128   65   69 1    
   129   65  131 1    
   130   66   67 am   BACKBONE|DICT|INTERRES
   131   66   68 2    
   132   67  132 1    
   133   67  133 1    
   134   69   70 1    
   135   69  134 1    
   136   69  135 1    
   137   70   71 1    
   138   71  136 1    
   139   71  137 1    
@<TRIPOS>SUBSTRUCTURE
     1 UNK         1 GROUP             0       ****    0 ROOT    
