@<TRIPOS>MOLECULE
3R137
137   139    1
SMALL
USER_CHARGES


@<TRIPOS>ATOM
      1 CA         26.0808   -5.9763    1.0592 C.3       0 UNK        -0.2020 
      2 C          26.2073   -5.4244   -0.3530 C.2       0 UNK         0.4855 
      3 O          25.5879   -5.9619   -1.2710 O.2       0 UNK        -0.5197 
      4 N          27.0033   -4.3578   -0.5220 N.am      1 UNK        -0.4892 
      5 CA         27.2817   -3.6579   -1.7873 C.3       1 UNK         0.0835 
      6 C6         28.0840   -4.5096   -2.8119 C.3       12 UNK        -0.0855 
      7 S7         29.6629   -5.1297   -2.1317 S.3       12 UNK        -0.2931 
      8 C8         30.8867   -4.4862   -3.3302 C.3       12 UNK         0.0378 
      9 C9         31.1367   -2.9753   -3.3026 C.ar      12 UNK        -0.0802 
     10 C10        31.8682   -2.4070   -4.3507 C.ar      12 UNK        -0.0944 
     11 C11        32.1572   -1.0390   -4.3667 C.ar      12 UNK        -0.0787 
     12 C12        31.6870   -0.2250   -3.3348 C.ar      12 UNK        -0.0862 
     13 C13        30.9362   -0.7698   -2.2909 C.ar      12 UNK        -0.0733 
     14 C14        30.6899   -2.1457   -2.2653 C.ar      12 UNK        -0.0832 
     15 C15        30.3845    0.1289   -1.1927 C.3       12 UNK         0.0240 
     16 S16        29.2391    1.3933   -1.8397 S.3       12 UNK        -0.2522 
     17 C17        27.9686    0.3939   -2.6916 C.3       12 UNK        -0.0967 
     18 CA         27.9961    0.5700   -4.2332 C.3       5 UNK         0.0660 
     19 N          27.2490   -0.4847   -4.9202 N.am      5 UNK        -0.4015 
     20 C          27.3404   -0.7552   -6.2307 C.2       4 UNK         0.4946 
     21 O          28.1471   -0.2229   -6.9945 O.2       4 UNK        -0.5353 
     22 CA         26.3292   -1.7604   -6.8031 C.3       4 UNK         0.0277 
     23 CB         26.9009   -3.1869   -6.7794 C.3       4 UNK        -0.1981 
     24 N          25.0367   -1.7169   -6.1114 N.am      4 UNK        -0.4209 
     25 C          24.1710   -0.6979   -6.2302 C.2       3 UNK         0.4942 
     26 O          24.3743    0.2850   -6.9398 O.2       3 UNK        -0.5208 
     27 CA         22.8812   -0.7479   -5.3949 C.3       3 UNK         0.0250 
     28 CB         21.7762   -1.4940   -6.1589 C.3       3 UNK        -0.1990 
     29 N          23.0494   -1.3466   -4.0703 N.am      3 UNK        -0.4232 
     30 C          23.8899   -0.9145   -3.1201 C.2       2 UNK         0.4993 
     31 O          24.6438    0.0510   -3.2613 O.2       2 UNK        -0.5286 
     32 CA         23.9346   -1.7166   -1.8037 C.3       2 UNK         0.0209 
     33 CB         22.8486   -2.8118   -1.6944 C.3       2 UNK        -0.1931 
     34 N          25.2523   -2.3117   -1.5441 N.am      2 UNK        -0.4546 
     35 C          25.9982   -3.0438   -2.3884 C.2       1 UNK         0.5154 
     36 O          25.7052   -3.2454   -3.5689 O.2       1 UNK        -0.5181 
     37 C          27.4736    1.9541   -4.6662 C.2       5 UNK         0.5014 
     38 O          28.2676    2.8019   -5.0750 O.2       5 UNK        -0.5248 
     39 N          26.1461    2.1407   -4.5961 N.am      6 UNK        -0.4434 
     40 CA         25.4521    3.3876   -4.9300 C.3       6 UNK         0.0363 
     41 CB         23.9614    3.2541   -4.5814 C.3       6 UNK        -0.1936 
     42 C          25.6295    3.8254   -6.3942 C.2       6 UNK         0.5081 
     43 O          25.8826    5.0042   -6.6445 O.2       6 UNK        -0.5248 
     44 N          25.5058    2.8769   -7.3323 N.am      7 UNK        -0.4718 
     45 CA         25.6829    3.1128   -8.7683 C.3       7 UNK         0.0273 
     46 CB         24.9389    2.0184   -9.5521 C.3       7 UNK        -0.1935 
     47 C          27.1569    3.1600   -9.2070 C.2       7 UNK         0.5018 
     48 O          27.4213    3.6046  -10.3248 O.2       7 UNK        -0.5186 
     49 N          28.0726    2.6791   -8.3499 N.am      8 UNK        -0.4240 
     50 CA         29.4999    2.4489   -8.6078 C.3       8 UNK         0.0235 
     51 CB         30.2555    3.7810   -8.7977 C.3       8 UNK        -0.2000 
     52 C          29.7016    1.4589   -9.7714 C.2       8 UNK         0.4941 
     53 O          30.3778    1.7699  -10.7535 O.2       8 UNK        -0.5273 
     54 N          29.0723    0.2833   -9.6425 N.am      9 UNK        -0.4262 
     55 CA         29.0487   -0.7791  -10.6549 C.3       9 UNK         0.0264 
     56 CB         27.7870   -1.6325  -10.4437 C.3       9 UNK        -0.1955 
     57 C          30.3115   -1.6633  -10.6547 C.2       9 UNK         0.5031 
     58 O          30.4252   -2.5518  -11.5010 O.2       9 UNK        -0.5390 
     59 N          31.2245   -1.4208   -9.7112 N.am      10 UNK        -0.4204 
     60 CA         32.5058   -2.0952   -9.5384 C.3       10 UNK         0.0237 
     61 CB         32.3228   -3.2887   -8.5778 C.3       10 UNK        -0.1985 
     62 C          33.5255   -1.0644   -9.0269 C.2       10 UNK         0.4970 
     63 O          33.2280    0.1337   -9.0226 O.2       10 UNK        -0.4914 
     64 N          34.6892   -1.5476   -8.5754 N.am      11 UNK        -0.4285 
     65 CA         35.8077   -0.7500   -8.0414 C.3       11 UNK         0.1007 
     66 C          36.5263    0.0957   -9.1389 C.2       11 UNK         0.5703 
     67 N          37.3736    1.0450   -8.7625 N.am      11 UNK        -0.7361 
     68 O          36.3665   -0.1313  -10.3377 O.2       11 UNK        -0.4986 
     69 C69        35.4304    0.0728   -6.7685 C.3       12 UNK        -0.0947 
     70 S70        34.7108   -0.9343   -5.4266 S.3       12 UNK        -0.2240 
     71 C71        32.9609   -0.4370   -5.5066 C.3       12 UNK         0.0194 
     72 H72        26.4093   -7.0150    1.0860 H         1 UNK         0.0906 
     73 H73        26.6803   -5.4136    1.7746 H         1 UNK         0.0906 
     74 H74        25.0415   -5.9392    1.3846 H         1 UNK         0.0906 
     75 H75        27.4844   -3.9857    0.2855 H         1 UNK         0.3140 
     76 H76        27.9015   -2.8040   -1.5202 H         1 UNK         0.1085 
     77 H77        28.2957   -3.9192   -3.7049 H         1 UNK         0.0836 
     78 H78        27.4946   -5.3644   -3.1484 H         1 UNK         0.0836 
     79 H79        30.5782   -4.7862   -4.3331 H         1 UNK         0.0731 
     80 H80        31.8366   -4.9880   -3.1406 H         1 UNK         0.0731 
     81 H81        32.2332   -3.0351   -5.1518 H         1 UNK         0.1312 
     82 H82        31.8898    0.8374   -3.3482 H         1 UNK         0.1406 
     83 H83        30.1508   -2.5632   -1.4290 H         1 UNK         0.1631 
     84 H84        31.2141    0.6277   -0.6898 H         1 UNK         0.0717 
     85 H85        29.8686   -0.4552   -0.4290 H         1 UNK         0.0717 
     86 H86        28.1264   -0.6532   -2.4400 H         1 UNK         0.0934 
     87 H87        26.9927    0.6501   -2.2760 H         1 UNK         0.0934 
     88 H88        29.0347    0.4898   -4.5631 H         1 UNK         0.0739 
     89 H89        26.5142   -0.9373   -4.3938 H         1 UNK         0.3093 
     90 H90        26.1564   -1.4856   -7.8457 H         1 UNK         0.0818 
     91 H91        27.8594   -3.2337   -7.2979 H         1 UNK         0.0819 
     92 H92        26.2305   -3.8900   -7.2735 H         1 UNK         0.0819 
     93 H93        27.0692   -3.5427   -5.7641 H         1 UNK         0.0819 
     94 H94        24.8434   -2.4596   -5.4489 H         1 UNK         0.3041 
     95 H95        22.5510    0.2813   -5.2438 H         1 UNK         0.0784 
     96 H96        21.6160   -1.0511   -7.1432 H         1 UNK         0.0793 
     97 H97        22.0277   -2.5444   -6.3113 H         1 UNK         0.0793 
     98 H98        20.8252   -1.4487   -5.6278 H         1 UNK         0.0793 
     99 H99        22.4921   -2.1645   -3.8706 H         1 UNK         0.3024 
    100 H100       23.7543   -0.9894   -1.0101 H         1 UNK         0.1171 
    101 H101       22.8717   -3.2828   -0.7114 H         1 UNK         0.0786 
    102 H102       21.8471   -2.3976   -1.8202 H         1 UNK         0.0786 
    103 H103       22.9853   -3.6024   -2.4338 H         1 UNK         0.0786 
    104 H104       25.5982   -2.1941   -0.6020 H         1 UNK         0.2977 
    105 H105       25.5711    1.3880   -4.2222 H         1 UNK         0.3127 
    106 H106       25.8777    4.1714   -4.2998 H         1 UNK         0.0770 
    107 H107       23.4757    2.4854   -5.1824 H         1 UNK         0.0814 
    108 H108       23.4335    4.1912   -4.7628 H         1 UNK         0.0814 
    109 H109       23.8189    2.9986   -3.5311 H         1 UNK         0.0814 
    110 H110       25.2326    1.9345   -7.0578 H         1 UNK         0.2983 
    111 H111       25.2357    4.0763   -9.0231 H         1 UNK         0.0947 
    112 H112       24.9897    2.2020  -10.6261 H         1 UNK         0.0806 
    113 H113       23.8841    1.9808   -9.2792 H         1 UNK         0.0806 
    114 H114       25.3674    1.0319   -9.3701 H         1 UNK         0.0806 
    115 H115       27.7387    2.3493   -7.4536 H         1 UNK         0.3000 
    116 H116       29.9008    1.9673   -7.7141 H         1 UNK         0.0850 
    117 H117       31.3280    3.6070   -8.8935 H         1 UNK         0.0810 
    118 H118       30.1083    4.4432   -7.9446 H         1 UNK         0.0810 
    119 H119       29.9320    4.3106   -9.6942 H         1 UNK         0.0810 
    120 H120       28.5936    0.0930   -8.7625 H         1 UNK         0.3040 
    121 H121       28.9813   -0.3147  -11.6411 H         1 UNK         0.0766 
    122 H122       26.8850   -1.0201  -10.4449 H         1 UNK         0.0812 
    123 H123       27.8271   -2.1763   -9.5005 H         1 UNK         0.0812 
    124 H124       27.6770   -2.3710  -11.2388 H         1 UNK         0.0812 
    125 H125       31.0982   -0.6055   -9.1263 H         1 UNK         0.3205 
    126 H126       32.8640   -2.4557  -10.5049 H         1 UNK         0.0754 
    127 H127       33.2398   -3.8689   -8.4734 H         1 UNK         0.0769 
    128 H128       31.5569   -3.9731   -8.9435 H         1 UNK         0.0769 
    129 H129       32.0229   -2.9602   -7.5825 H         1 UNK         0.0769 
    130 H130       34.8582   -2.5405   -8.6361 H         1 UNK         0.2981 
    131 H131       36.5517   -1.4870   -7.7378 H         1 UNK         0.0541 
    132 H132       37.8535    1.5793   -9.4699 H         1 UNK         0.3459 
    133 H133       37.5433    1.2377   -7.7881 H         1 UNK         0.3459 
    134 H134       36.3190    0.5438   -6.3467 H         1 UNK         0.0612 
    135 H135       34.7550    0.8917   -7.0199 H         1 UNK         0.0612 
    136 H136       32.8947    0.6520   -5.4891 H         1 UNK         0.0624 
    137 H137       32.5232   -0.7577   -6.4498 H         1 UNK         0.0624 
@<TRIPOS>BOND
     1    1    2 1    
     2    1   72 1    
     3    1   73 1    
     4    1   74 1    
     5    2    3 2    
     6    2    4 am   BACKBONE|DICT|INTERRES
     7    4    5 1    
     8    4   75 1    
     9    5    6 1    
    10    5   35 1    
    11    5   76 1    
    12    6    7 1    
    13    6   77 1    
    14    6   78 1    
    15    7    8 1    
    16    8    9 1    
    17    8   79 1    
    18    8   80 1    
    19    9   10 ar   
    20    9   14 ar   
    21   10   11 ar   
    22   10   81 1    
    23   11   12 ar   
    24   11   71 1    
    25   12   13 ar   
    26   12   82 1    
    27   13   14 ar   
    28   13   15 1    
    29   14   83 1    
    30   15   16 1    
    31   15   84 1    
    32   15   85 1    
    33   16   17 1    
    34   17   18 1    
    35   17   86 1    
    36   17   87 1    
    37   18   19 1    
    38   18   37 1    
    39   18   88 1    
    40   19   20 am   BACKBONE|DICT|INTERRES
    41   19   89 1    
    42   20   21 2    
    43   20   22 1    
    44   22   23 1    
    45   22   24 1    
    46   22   90 1    
    47   23   91 1    
    48   23   92 1    
    49   23   93 1    
    50   24   25 am   BACKBONE|DICT|INTERRES
    51   24   94 1    
    52   25   26 2    
    53   25   27 1    
    54   27   28 1    
    55   27   29 1    
    56   27   95 1    
    57   28   96 1    
    58   28   97 1    
    59   28   98 1    
    60   29   30 am   BACKBONE|DICT|INTERRES
    61   29   99 1    
    62   30   31 2    
    63   30   32 1    
    64   32   33 1    
    65   32   34 1    
    66   32  100 1    
    67   33  101 1    
    68   33  102 1    
    69   33  103 1    
    70   34   35 am   BACKBONE|DICT|INTERRES
    71   34  104 1    
    72   35   36 2    
    73   37   38 2    
    74   37   39 am   BACKBONE|DICT|INTERRES
    75   39   40 1    
    76   39  105 1    
    77   40   41 1    
    78   40   42 1    
    79   40  106 1    
    80   41  107 1    
    81   41  108 1    
    82   41  109 1    
    83   42   43 2    
    84   42   44 am   BACKBONE|DICT|INTERRES
    85   44   45 1    
    86   44  110 1    
    87   45   46 1    
    88   45   47 1    
    89   45  111 1    
    90   46  112 1    
    91   46  113 1    
    92   46  114 1    
    93   47   48 2    
    94   47   49 am   BACKBONE|DICT|INTERRES
    95   49   50 1    
    96   49  115 1    
    97   50   51 1    
    98   50   52 1    
    99   50  116 1    
   100   51  117 1    
   101   51  118 1    
   102   51  119 1    
   103   52   53 2    
   104   52   54 am   BACKBONE|DICT|INTERRES
   105   54   55 1    
   106   54  120 1    
   107   55   56 1    
   108   55   57 1    
   109   55  121 1    
   110   56  122 1    
   111   56  123 1    
   112   56  124 1    
   113   57   58 2    
   114   57   59 am   BACKBONE|DICT|INTERRES
   115   59   60 1    
   116   59  125 1    
   117   60   61 1    
   118   60   62 1    
   119   60  126 1    
   120   61  127 1    
   121   61  128 1    
   122   61  129 1    
   123   62   63 2    
   124   62   64 am   BACKBONE|DICT|INTERRES
   125   64   65 1    
   126   64  130 1    
   127   65   66 1    
   128   65   69 1    
   129   65  131 1    
   130   66   67 am   BACKBONE|DICT|INTERRES
   131   66   68 2    
   132   67  132 1    
   133   67  133 1    
   134   69   70 1    
   135   69  134 1    
   136   69  135 1    
   137   70   71 1    
   138   71  136 1    
   139   71  137 1    
@<TRIPOS>SUBSTRUCTURE
     1 UNK         1 GROUP             0       ****    0 ROOT    
