@<TRIPOS>MOLECULE
3R137
137   139    1
SMALL
USER_CHARGES


@<TRIPOS>ATOM
      1 CA         24.8592   -3.1578    1.3075 C.3       0 UNK        -0.2020 
      2 C          25.9211   -2.3832    0.5421 C.2       0 UNK         0.4855 
      3 O          26.4152   -1.3676    1.0347 O.2       0 UNK        -0.5197 
      4 N          26.2769   -2.8488   -0.6619 N.am      1 UNK        -0.4892 
      5 CA         27.2707   -2.2371   -1.5521 C.3       1 UNK         0.0835 
      6 C6         27.8776   -3.2751   -2.5288 C.3       12 UNK        -0.0855 
      7 S7         28.9283   -4.4803   -1.6523 S.3       12 UNK        -0.2931 
      8 C8         30.6056   -3.8654   -2.0612 C.3       12 UNK         0.0378 
      9 C9         31.0389   -4.0353   -3.5211 C.ar      12 UNK        -0.0802 
     10 C10        32.1334   -3.3006   -3.9947 C.ar      12 UNK        -0.0944 
     11 C11        32.5893   -3.4604   -5.3082 C.ar      12 UNK        -0.0787 
     12 C12        31.9182   -4.3363   -6.1672 C.ar      12 UNK        -0.0862 
     13 C13        30.8258   -5.0780   -5.7111 C.ar      12 UNK        -0.0733 
     14 C14        30.4061   -4.9364   -4.3865 C.ar      12 UNK        -0.0832 
     15 C15        30.1243   -6.0696   -6.6300 C.3       12 UNK         0.0240 
     16 S16        28.9497   -5.2683   -7.7683 S.3       12 UNK        -0.2522 
     17 C17        27.6820   -4.5982   -6.6336 C.3       12 UNK        -0.0967 
     18 CA         27.1903   -3.1886   -7.0434 C.3       5 UNK         0.0660 
     19 N          25.9390   -2.8398   -6.3652 N.am      5 UNK        -0.4015 
     20 C          25.2167   -1.7333   -6.5834 C.2       4 UNK         0.4946 
     21 O          25.5813   -0.8170   -7.3236 O.2       4 UNK        -0.5353 
     22 CA         23.8668   -1.6145   -5.8615 C.3       4 UNK         0.0277 
     23 CB         23.5953   -2.7097   -4.8068 C.3       4 UNK        -0.1981 
     24 N          23.8151   -0.3039   -5.2294 N.am      4 UNK        -0.4209 
     25 C          22.7400    0.4862   -5.1281 C.2       3 UNK         0.4942 
     26 O          21.6309    0.1884   -5.5752 O.2       3 UNK        -0.5208 
     27 CA         22.9389    1.8478   -4.4233 C.3       3 UNK         0.0250 
     28 CB         21.6917    2.2898   -3.6276 C.3       3 UNK        -0.1990 
     29 N          24.1507    1.9142   -3.5902 N.am      3 UNK        -0.4232 
     30 C          24.4339    1.1647   -2.5142 C.2       2 UNK         0.4993 
     31 O          23.6505    0.3712   -1.9874 O.2       2 UNK        -0.5286 
     32 CA         25.8511    1.3239   -1.9444 C.3       2 UNK         0.0209 
     33 CB         25.8532    2.3114   -0.7667 C.3       2 UNK        -0.1931 
     34 N          26.4038    0.0448   -1.4988 N.am      2 UNK        -0.4546 
     35 C          26.6792   -1.0099   -2.2774 C.2       1 UNK         0.5154 
     36 O          26.5094   -1.0283   -3.5015 O.2       1 UNK        -0.5181 
     37 C          28.2940   -2.1140   -6.9237 C.2       5 UNK         0.5014 
     38 O          28.9574   -1.8426   -7.9242 O.2       5 UNK        -0.5248 
     39 N          28.4436   -1.4724   -5.7525 N.am      6 UNK        -0.4434 
     40 CA         29.4563   -0.4270   -5.5575 C.3       6 UNK         0.0363 
     41 CB         29.6700   -0.1256   -4.0661 C.3       6 UNK        -0.1936 
     42 C          29.1260    0.8679   -6.3123 C.2       6 UNK         0.5081 
     43 O          30.0494    1.5718   -6.7160 O.2       6 UNK        -0.5248 
     44 N          27.8324    1.1544   -6.5112 N.am      7 UNK        -0.4718 
     45 CA         27.3710    2.2736   -7.3324 C.3       7 UNK         0.0273 
     46 CB         25.9173    2.6261   -6.9769 C.3       7 UNK        -0.1935 
     47 C          27.5192    1.9602   -8.8286 C.2       7 UNK         0.5018 
     48 O          27.9836    2.8173   -9.5799 O.2       7 UNK        -0.5186 
     49 N          27.1524    0.7322   -9.2237 N.am      8 UNK        -0.4240 
     50 CA         27.2451    0.2304  -10.5965 C.3       8 UNK         0.0235 
     51 CB         26.5321   -1.1277  -10.6976 C.3       8 UNK        -0.2000 
     52 C          28.6919    0.1273  -11.1090 C.2       8 UNK         0.4941 
     53 O          28.9709    0.5789  -12.2203 O.2       8 UNK        -0.5273 
     54 N          29.5848   -0.4511  -10.2940 N.am      9 UNK        -0.4262 
     55 CA         31.0058   -0.6227  -10.6109 C.3       9 UNK         0.0264 
     56 CB         31.5374   -1.8562   -9.8625 C.3       9 UNK        -0.1955 
     57 C          31.8627    0.6201  -10.3010 C.2       9 UNK         0.5031 
     58 O          33.0312    0.6396  -10.6913 O.2       9 UNK        -0.5390 
     59 N          31.2837    1.6217   -9.6193 N.am      10 UNK        -0.4204 
     60 CA         31.9057    2.8725   -9.1640 C.3       10 UNK         0.0237 
     61 CB         32.3015    3.7634  -10.3611 C.3       10 UNK        -0.1985 
     62 C          33.0637    2.6251   -8.1759 C.2       10 UNK         0.4970 
     63 O          34.1591    3.1638   -8.3481 O.2       10 UNK        -0.4914 
     64 N          32.7869    1.8037   -7.1578 N.am      11 UNK        -0.4285 
     65 CA         33.7158    1.4436   -6.0755 C.3       11 UNK         0.1007 
     66 C          33.7948    2.5051   -4.9413 C.2       11 UNK         0.5703 
     67 N          32.8992    3.4844   -4.8807 N.am      11 UNK        -0.7361 
     68 O          34.6937    2.4442   -4.1059 O.2       11 UNK        -0.4986 
     69 C69        33.4077    0.0365   -5.4965 C.3       12 UNK        -0.0947 
     70 S70        33.4756   -1.2644   -6.7710 S.3       12 UNK        -0.2240 
     71 C71        33.8469   -2.7476   -5.7879 C.3       12 UNK         0.0194 
     72 H72        25.2539   -3.4849    2.2690 H         1 UNK         0.0906 
     73 H73        23.9933   -2.5226    1.4925 H         1 UNK         0.0906 
     74 H74        24.5232   -4.0391    0.7614 H         1 UNK         0.0906 
     75 H75        25.8334   -3.6837   -1.0177 H         1 UNK         0.3140 
     76 H76        28.0915   -1.8543   -0.9403 H         1 UNK         0.1085 
     77 H77        27.0911   -3.8113   -3.0627 H         1 UNK         0.0836 
     78 H78        28.4815   -2.7918   -3.2954 H         1 UNK         0.0836 
     79 H79        30.6671   -2.8132   -1.7789 H         1 UNK         0.0731 
     80 H80        31.3228   -4.3938   -1.4318 H         1 UNK         0.0731 
     81 H81        32.6521   -2.6231   -3.3301 H         1 UNK         0.1312 
     82 H82        32.2613   -4.4586   -7.1857 H         1 UNK         0.1406 
     83 H83        29.5826   -5.5413   -4.0357 H         1 UNK         0.1631 
     84 H84        29.5976   -6.8289   -6.0496 H         1 UNK         0.0717 
     85 H85        30.8702   -6.6051   -7.2191 H         1 UNK         0.0717 
     86 H86        26.8480   -5.3016   -6.6484 H         1 UNK         0.0934 
     87 H87        28.0400   -4.5888   -5.6054 H         1 UNK         0.0934 
     88 H88        26.9318   -3.2386   -8.1030 H         1 UNK         0.0739 
     89 H89        25.5680   -3.5255   -5.7249 H         1 UNK         0.3093 
     90 H90        23.0994   -1.6772   -6.6358 H         1 UNK         0.0818 
     91 H91        22.6259   -2.5570   -4.3318 H         1 UNK         0.0819 
     92 H92        23.5704   -3.7034   -5.2557 H         1 UNK         0.0819 
     93 H93        24.3462   -2.7097   -4.0154 H         1 UNK         0.0819 
     94 H94        24.6912    0.0163   -4.8406 H         1 UNK         0.3041 
     95 H95        23.0867    2.5732   -5.2248 H         1 UNK         0.0784 
     96 H96        20.8260    2.3950   -4.2827 H         1 UNK         0.0793 
     97 H97        21.4258    1.5677   -2.8552 H         1 UNK         0.0793 
     98 H98        21.8494    3.2546   -3.1456 H         1 UNK         0.0793 
     99 H99        24.8546    2.5632   -3.9133 H         1 UNK         0.3024 
    100 H100       26.5082    1.7091   -2.7274 H         1 UNK         0.1171 
    101 H101       25.2313    1.9563    0.0564 H         1 UNK         0.0786 
    102 H102       25.4675    3.2857   -1.0703 H         1 UNK         0.0786 
    103 H103       26.8610    2.4687   -0.3816 H         1 UNK         0.0786 
    104 H104       26.4956   -0.0907   -0.4966 H         1 UNK         0.2977 
    105 H105       27.7910   -1.6384   -4.9942 H         1 UNK         0.3127 
    106 H106       30.3988   -0.8067   -5.9585 H         1 UNK         0.0770 
    107 H107       29.9545   -1.0174   -3.5102 H         1 UNK         0.0814 
    108 H108       28.7822    0.3070   -3.6094 H         1 UNK         0.0814 
    109 H109       30.4694    0.6033   -3.9294 H         1 UNK         0.0814 
    110 H110       27.1372    0.4831   -6.2145 H         1 UNK         0.2983 
    111 H111       27.9906    3.1467   -7.1136 H         1 UNK         0.0947 
    112 H112       25.5651    3.4661   -7.5771 H         1 UNK         0.0806 
    113 H113       25.8288    2.9189   -5.9317 H         1 UNK         0.0806 
    114 H114       25.2361    1.7938   -7.1549 H         1 UNK         0.0806 
    115 H115       26.7392    0.1089   -8.5337 H         1 UNK         0.3000 
    116 H116       26.7171    0.9381  -11.2392 H         1 UNK         0.0850 
    117 H117       26.5374   -1.4953  -11.7245 H         1 UNK         0.0810 
    118 H118       25.4907   -1.0541  -10.3835 H         1 UNK         0.0810 
    119 H119       27.0151   -1.8836  -10.0784 H         1 UNK         0.0810 
    120 H120       29.2707   -0.8468   -9.4070 H         1 UNK         0.3040 
    121 H121       31.1060   -0.8177  -11.6807 H         1 UNK         0.0766 
    122 H122       32.5914   -2.0301  -10.0826 H         1 UNK         0.0812 
    123 H123       30.9923   -2.7572  -10.1439 H         1 UNK         0.0812 
    124 H124       31.4448   -1.7385   -8.7833 H         1 UNK         0.0812 
    125 H125       30.3229    1.4902   -9.3338 H         1 UNK         0.3205 
    126 H126       31.1360    3.4054   -8.6034 H         1 UNK         0.0754 
    127 H127       32.6557    4.7374  -10.0214 H         1 UNK         0.0769 
    128 H128       31.4512    3.9399  -11.0201 H         1 UNK         0.0769 
    129 H129       33.0996    3.3174  -10.9553 H         1 UNK         0.0769 
    130 H130       31.8274    1.4821   -7.0516 H         1 UNK         0.2981 
    131 H131       34.7189    1.3990   -6.5040 H         1 UNK         0.0541 
    132 H132       32.1511    3.5330   -5.5535 H         1 UNK         0.3459 
    133 H133       32.9650    4.1695   -4.1448 H         1 UNK         0.3459 
    134 H134       32.4251    0.0145   -5.0288 H         1 UNK         0.0612 
    135 H135       34.1258   -0.2105   -4.7127 H         1 UNK         0.0612 
    136 H136       34.4266   -3.4308   -6.4104 H         1 UNK         0.0624 
    137 H137       34.4937   -2.4935   -4.9472 H         1 UNK         0.0624 
@<TRIPOS>BOND
     1    1    2 1    
     2    1   72 1    
     3    1   73 1    
     4    1   74 1    
     5    2    3 2    
     6    2    4 am   BACKBONE|DICT|INTERRES
     7    4    5 1    
     8    4   75 1    
     9    5    6 1    
    10    5   35 1    
    11    5   76 1    
    12    6    7 1    
    13    6   77 1    
    14    6   78 1    
    15    7    8 1    
    16    8    9 1    
    17    8   79 1    
    18    8   80 1    
    19    9   10 ar   
    20    9   14 ar   
    21   10   11 ar   
    22   10   81 1    
    23   11   12 ar   
    24   11   71 1    
    25   12   13 ar   
    26   12   82 1    
    27   13   14 ar   
    28   13   15 1    
    29   14   83 1    
    30   15   16 1    
    31   15   84 1    
    32   15   85 1    
    33   16   17 1    
    34   17   18 1    
    35   17   86 1    
    36   17   87 1    
    37   18   19 1    
    38   18   37 1    
    39   18   88 1    
    40   19   20 am   BACKBONE|DICT|INTERRES
    41   19   89 1    
    42   20   21 2    
    43   20   22 1    
    44   22   23 1    
    45   22   24 1    
    46   22   90 1    
    47   23   91 1    
    48   23   92 1    
    49   23   93 1    
    50   24   25 am   BACKBONE|DICT|INTERRES
    51   24   94 1    
    52   25   26 2    
    53   25   27 1    
    54   27   28 1    
    55   27   29 1    
    56   27   95 1    
    57   28   96 1    
    58   28   97 1    
    59   28   98 1    
    60   29   30 am   BACKBONE|DICT|INTERRES
    61   29   99 1    
    62   30   31 2    
    63   30   32 1    
    64   32   33 1    
    65   32   34 1    
    66   32  100 1    
    67   33  101 1    
    68   33  102 1    
    69   33  103 1    
    70   34   35 am   BACKBONE|DICT|INTERRES
    71   34  104 1    
    72   35   36 2    
    73   37   38 2    
    74   37   39 am   BACKBONE|DICT|INTERRES
    75   39   40 1    
    76   39  105 1    
    77   40   41 1    
    78   40   42 1    
    79   40  106 1    
    80   41  107 1    
    81   41  108 1    
    82   41  109 1    
    83   42   43 2    
    84   42   44 am   BACKBONE|DICT|INTERRES
    85   44   45 1    
    86   44  110 1    
    87   45   46 1    
    88   45   47 1    
    89   45  111 1    
    90   46  112 1    
    91   46  113 1    
    92   46  114 1    
    93   47   48 2    
    94   47   49 am   BACKBONE|DICT|INTERRES
    95   49   50 1    
    96   49  115 1    
    97   50   51 1    
    98   50   52 1    
    99   50  116 1    
   100   51  117 1    
   101   51  118 1    
   102   51  119 1    
   103   52   53 2    
   104   52   54 am   BACKBONE|DICT|INTERRES
   105   54   55 1    
   106   54  120 1    
   107   55   56 1    
   108   55   57 1    
   109   55  121 1    
   110   56  122 1    
   111   56  123 1    
   112   56  124 1    
   113   57   58 2    
   114   57   59 am   BACKBONE|DICT|INTERRES
   115   59   60 1    
   116   59  125 1    
   117   60   61 1    
   118   60   62 1    
   119   60  126 1    
   120   61  127 1    
   121   61  128 1    
   122   61  129 1    
   123   62   63 2    
   124   62   64 am   BACKBONE|DICT|INTERRES
   125   64   65 1    
   126   64  130 1    
   127   65   66 1    
   128   65   69 1    
   129   65  131 1    
   130   66   67 am   BACKBONE|DICT|INTERRES
   131   66   68 2    
   132   67  132 1    
   133   67  133 1    
   134   69   70 1    
   135   69  134 1    
   136   69  135 1    
   137   70   71 1    
   138   71  136 1    
   139   71  137 1    
@<TRIPOS>SUBSTRUCTURE
     1 UNK         1 GROUP             0       ****    0 ROOT    
