@<TRIPOS>MOLECULE
3R137
137   139    1
SMALL
USER_CHARGES


@<TRIPOS>ATOM
      1 CA         29.2938   -6.0926   -4.6565 C.3       0 UNK        -0.2020 
      2 C          28.4300   -5.9726   -3.4104 C.2       0 UNK         0.4855 
      3 O          28.0881   -6.9864   -2.8012 O.2       0 UNK        -0.5197 
      4 N          28.0663   -4.7438   -3.0328 N.am      1 UNK        -0.4892 
      5 CA         27.1784   -4.4262   -1.9182 C.3       1 UNK         0.0835 
      6 C6         27.9007   -4.4994   -0.5402 C.3       12 UNK        -0.0855 
      7 S7         28.8494   -3.0289   -0.0032 S.3       12 UNK        -0.2931 
      8 C8         30.4630   -3.2487   -0.8253 C.3       12 UNK         0.0378 
      9 C9         30.6102   -2.3313   -2.0330 C.ar      12 UNK        -0.0802 
     10 C10        30.8529   -2.8584   -3.3057 C.ar      12 UNK        -0.0944 
     11 C11        30.9823   -2.0124   -4.4120 C.ar      12 UNK        -0.0787 
     12 C12        30.8489   -0.6322   -4.2408 C.ar      12 UNK        -0.0862 
     13 C13        30.6342   -0.0893   -2.9714 C.ar      12 UNK        -0.0733 
     14 C14        30.5303   -0.9439   -1.8702 C.ar      12 UNK        -0.0832 
     15 C15        30.5233    1.4215   -2.7993 C.3       12 UNK         0.0240 
     16 S16        28.9542    1.9670   -2.0376 S.3       12 UNK        -0.2522 
     17 C17        27.6938    0.9038   -2.8196 C.3       12 UNK        -0.0967 
     18 CA         27.6077    1.0282   -4.3616 C.3       5 UNK         0.0660 
     19 N          27.1145   -0.2148   -4.9646 N.am      5 UNK        -0.4015 
     20 C          26.9107   -0.4501   -6.2698 C.2       4 UNK         0.4946 
     21 O          27.0699    0.3839   -7.1589 O.2       4 UNK        -0.5353 
     22 CA         26.3862   -1.8450   -6.6352 C.3       4 UNK         0.0277 
     23 CB         27.4987   -2.9026   -6.5294 C.3       4 UNK        -0.1981 
     24 N          25.2633   -2.2075   -5.7705 N.am      4 UNK        -0.4209 
     25 C          24.0101   -1.7610   -5.9413 C.2       3 UNK         0.4942 
     26 O          23.6420   -1.1039   -6.9152 O.2       3 UNK        -0.5208 
     27 CA         22.9940   -2.0827   -4.8303 C.3       3 UNK         0.0250 
     28 CB         22.2667   -3.4030   -5.1312 C.3       3 UNK        -0.1990 
     29 N          23.5890   -2.1490   -3.4922 N.am      3 UNK        -0.4232 
     30 C          24.1520   -1.1131   -2.8535 C.2       2 UNK         0.4993 
     31 O          24.2227    0.0255   -3.3169 O.2       2 UNK        -0.5286 
     32 CA         24.7944   -1.4134   -1.4879 C.3       2 UNK         0.0209 
     33 CB         23.7425   -1.3370   -0.3700 C.3       2 UNK        -0.1931 
     34 N          25.4982   -2.7018   -1.4146 N.am      2 UNK        -0.4546 
     35 C          26.4944   -3.0814   -2.2280 C.2       1 UNK         0.5154 
     36 O          26.8658   -2.4191   -3.2033 O.2       1 UNK        -0.5181 
     37 C          26.8098    2.2772   -4.7800 C.2       5 UNK         0.5014 
     38 O          27.4162    3.3093   -5.0702 O.2       5 UNK        -0.5248 
     39 N          25.4789    2.1414   -4.8752 N.am      6 UNK        -0.4434 
     40 CA         24.5432    3.1631   -5.3568 C.3       6 UNK         0.0363 
     41 CB         23.1167    2.5927   -5.3011 C.3       6 UNK        -0.1936 
     42 C          24.8410    3.7129   -6.7680 C.2       6 UNK         0.5081 
     43 O          24.4303    4.8354   -7.0643 O.2       6 UNK        -0.5248 
     44 N          25.5461    2.9377   -7.6027 N.am      7 UNK        -0.4718 
     45 CA         25.9901    3.3249   -8.9436 C.3       7 UNK         0.0273 
     46 CB         25.3068    2.3957   -9.9635 C.3       7 UNK        -0.1935 
     47 C          27.5235    3.2628   -9.0811 C.2       7 UNK         0.5018 
     48 O          28.0213    3.3379  -10.2062 O.2       7 UNK        -0.5186 
     49 N          28.2465    3.0786   -7.9639 N.am      8 UNK        -0.4240 
     50 CA         29.6803    2.7733   -7.8195 C.3       8 UNK         0.0235 
     51 CB         30.5674    3.9127   -8.3564 C.3       8 UNK        -0.2000 
     52 C          30.1033    1.4111   -8.4076 C.2       8 UNK         0.4941 
     53 O          30.8063    0.6587   -7.7313 O.2       8 UNK        -0.5273 
     54 N          29.6572    1.1189   -9.6372 N.am      9 UNK        -0.4262 
     55 CA         29.8743   -0.1028  -10.4156 C.3       9 UNK         0.0264 
     56 CB         29.1612   -1.2962   -9.7392 C.3       9 UNK        -0.1955 
     57 C          31.3670   -0.3544  -10.7101 C.2       9 UNK         0.5031 
     58 O          32.1426    0.5992  -10.8229 O.2       9 UNK        -0.5390 
     59 N          31.7500   -1.6333  -10.8329 N.am      10 UNK        -0.4204 
     60 CA         33.1210   -2.0924  -11.0868 C.3       10 UNK         0.0237 
     61 CB         33.1044   -3.6119  -11.3233 C.3       10 UNK        -0.1985 
     62 C          34.1266   -1.7328   -9.9758 C.2       10 UNK         0.4970 
     63 O          35.3305   -1.7342  -10.2363 O.2       10 UNK        -0.4914 
     64 N          33.6241   -1.4266   -8.7734 N.am      11 UNK        -0.4285 
     65 CA         34.4087   -0.9313   -7.6358 C.3       11 UNK         0.1007 
     66 C          34.8819    0.5447   -7.7925 C.2       11 UNK         0.5703 
     67 N          34.3643    1.3202   -8.7405 N.am      11 UNK        -0.7361 
     68 O          35.7471    0.9911   -7.0427 O.2       11 UNK        -0.4986 
     69 C69        33.6608   -1.1272   -6.2916 C.3       12 UNK        -0.0947 
     70 S70        33.0727   -2.8374   -6.0248 S.3       12 UNK        -0.2240 
     71 C71        31.2840   -2.5853   -5.7892 C.3       12 UNK         0.0194 
     72 H72        29.2354   -5.1973   -5.2732 H         1 UNK         0.0906 
     73 H73        30.3349   -6.2577   -4.3806 H         1 UNK         0.0906 
     74 H74        28.9646   -6.9355   -5.2635 H         1 UNK         0.0906 
     75 H75        28.3300   -3.9244   -3.5666 H         1 UNK         0.3140 
     76 H76        26.3805   -5.1727   -1.9203 H         1 UNK         0.1085 
     77 H77        28.5460   -5.3779   -0.4924 H         1 UNK         0.0836 
     78 H78        27.1496   -4.6713    0.2322 H         1 UNK         0.0836 
     79 H79        30.6025   -4.2940   -1.1049 H         1 UNK         0.0731 
     80 H80        31.2539   -3.0149   -0.1115 H         1 UNK         0.0731 
     81 H81        30.9567   -3.9263   -3.4352 H         1 UNK         0.1312 
     82 H82        30.9279    0.0225   -5.0976 H         1 UNK         0.1406 
     83 H83        30.3584   -0.5288   -0.8862 H         1 UNK         0.1631 
     84 H84        30.6359    1.9289   -3.7587 H         1 UNK         0.0717 
     85 H85        31.3508    1.7673   -2.1786 H         1 UNK         0.0717 
     86 H86        27.9224   -0.1221   -2.5302 H         1 UNK         0.0934 
     87 H87        26.7293    1.1185   -2.3564 H         1 UNK         0.0934 
     88 H88        28.6110    1.1539   -4.7683 H         1 UNK         0.0739 
     89 H89        26.9642   -0.9862   -4.3173 H         1 UNK         0.3093 
     90 H90        26.0426   -1.8187   -7.6719 H         1 UNK         0.0818 
     91 H91        27.1241   -3.8982   -6.7673 H         1 UNK         0.0819 
     92 H92        28.3054   -2.6862   -7.2285 H         1 UNK         0.0819 
     93 H93        27.9407   -2.9381   -5.5346 H         1 UNK         0.0819 
     94 H94        25.4904   -2.6945   -4.9138 H         1 UNK         0.3041 
     95 H95        22.2550   -1.2784   -4.8235 H         1 UNK         0.0784 
     96 H96        21.7928   -3.3717   -6.1134 H         1 UNK         0.0793 
     97 H97        22.9508   -4.2527   -5.1267 H         1 UNK         0.0793 
     98 H98        21.4809   -3.5991   -4.4014 H         1 UNK         0.0793 
     99 H99        23.5805   -3.0468   -3.0302 H         1 UNK         0.3024 
    100 H100       25.5356   -0.6342   -1.3038 H         1 UNK         0.1171 
    101 H101       24.2021   -1.4276    0.6145 H         1 UNK         0.0786 
    102 H102       23.2179   -0.3805   -0.3923 H         1 UNK         0.0786 
    103 H103       22.9919   -2.1228   -0.4647 H         1 UNK         0.0786 
    104 H104       25.2538   -3.3006   -0.6387 H         1 UNK         0.2977 
    105 H105       25.0632    1.2715   -4.5492 H         1 UNK         0.3127 
    106 H106       24.6039    4.0059   -4.6656 H         1 UNK         0.0770 
    107 H107       23.0126    1.7113   -5.9357 H         1 UNK         0.0814 
    108 H108       22.3853    3.3283   -5.6386 H         1 UNK         0.0814 
    109 H109       22.8424    2.3075   -4.2852 H         1 UNK         0.0814 
    110 H110       25.8636    2.0258   -7.2839 H         1 UNK         0.2983 
    111 H111       25.7011    4.3543   -9.1656 H         1 UNK         0.0947 
    112 H112       25.6050    1.3560   -9.8192 H         1 UNK         0.0806 
    113 H113       25.5645    2.6723  -10.9867 H         1 UNK         0.0806 
    114 H114       24.2211    2.4473   -9.8807 H         1 UNK         0.0806 
    115 H115       27.7311    3.0509   -7.0904 H         1 UNK         0.3000 
    116 H116       29.8508    2.7079   -6.7435 H         1 UNK         0.0850 
    117 H117       31.6200    3.7093   -8.1548 H         1 UNK         0.0810 
    118 H118       30.3228    4.8626   -7.8811 H         1 UNK         0.0810 
    119 H119       30.4655    4.0398   -9.4344 H         1 UNK         0.0810 
    120 H120       29.1103    1.8448  -10.0947 H         1 UNK         0.3040 
    121 H121       29.3972    0.0688  -11.3813 H         1 UNK         0.0766 
    122 H122       29.1027   -2.1609  -10.4008 H         1 UNK         0.0812 
    123 H123       28.1367   -1.0375   -9.4696 H         1 UNK         0.0812 
    124 H124       29.6720   -1.6036   -8.8265 H         1 UNK         0.0812 
    125 H125       31.0472   -2.3514  -10.7324 H         1 UNK         0.3205 
    126 H126       33.4668   -1.6059  -12.0013 H         1 UNK         0.0754 
    127 H127       34.1050   -3.9833  -11.5497 H         1 UNK         0.0769 
    128 H128       32.4660   -3.8769  -12.1664 H         1 UNK         0.0769 
    129 H129       32.7475   -4.1531  -10.4459 H         1 UNK         0.0769 
    130 H130       32.6234   -1.4263   -8.6479 H         1 UNK         0.2981 
    131 H131       35.3180   -1.5335   -7.5867 H         1 UNK         0.0541 
    132 H132       34.6893    2.2692   -8.8296 H         1 UNK         0.3459 
    133 H133       33.6416    0.9743   -9.3609 H         1 UNK         0.3459 
    134 H134       34.3096   -0.8682   -5.4531 H         1 UNK         0.0612 
    135 H135       32.8182   -0.4389   -6.2438 H         1 UNK         0.0612 
    136 H136       30.7786   -3.5428   -5.9108 H         1 UNK         0.0624 
    137 H137       30.8948   -1.9340   -6.5734 H         1 UNK         0.0624 
@<TRIPOS>BOND
     1    1    2 1    
     2    1   72 1    
     3    1   73 1    
     4    1   74 1    
     5    2    3 2    
     6    2    4 am   BACKBONE|DICT|INTERRES
     7    4    5 1    
     8    4   75 1    
     9    5    6 1    
    10    5   35 1    
    11    5   76 1    
    12    6    7 1    
    13    6   77 1    
    14    6   78 1    
    15    7    8 1    
    16    8    9 1    
    17    8   79 1    
    18    8   80 1    
    19    9   10 ar   
    20    9   14 ar   
    21   10   11 ar   
    22   10   81 1    
    23   11   12 ar   
    24   11   71 1    
    25   12   13 ar   
    26   12   82 1    
    27   13   14 ar   
    28   13   15 1    
    29   14   83 1    
    30   15   16 1    
    31   15   84 1    
    32   15   85 1    
    33   16   17 1    
    34   17   18 1    
    35   17   86 1    
    36   17   87 1    
    37   18   19 1    
    38   18   37 1    
    39   18   88 1    
    40   19   20 am   BACKBONE|DICT|INTERRES
    41   19   89 1    
    42   20   21 2    
    43   20   22 1    
    44   22   23 1    
    45   22   24 1    
    46   22   90 1    
    47   23   91 1    
    48   23   92 1    
    49   23   93 1    
    50   24   25 am   BACKBONE|DICT|INTERRES
    51   24   94 1    
    52   25   26 2    
    53   25   27 1    
    54   27   28 1    
    55   27   29 1    
    56   27   95 1    
    57   28   96 1    
    58   28   97 1    
    59   28   98 1    
    60   29   30 am   BACKBONE|DICT|INTERRES
    61   29   99 1    
    62   30   31 2    
    63   30   32 1    
    64   32   33 1    
    65   32   34 1    
    66   32  100 1    
    67   33  101 1    
    68   33  102 1    
    69   33  103 1    
    70   34   35 am   BACKBONE|DICT|INTERRES
    71   34  104 1    
    72   35   36 2    
    73   37   38 2    
    74   37   39 am   BACKBONE|DICT|INTERRES
    75   39   40 1    
    76   39  105 1    
    77   40   41 1    
    78   40   42 1    
    79   40  106 1    
    80   41  107 1    
    81   41  108 1    
    82   41  109 1    
    83   42   43 2    
    84   42   44 am   BACKBONE|DICT|INTERRES
    85   44   45 1    
    86   44  110 1    
    87   45   46 1    
    88   45   47 1    
    89   45  111 1    
    90   46  112 1    
    91   46  113 1    
    92   46  114 1    
    93   47   48 2    
    94   47   49 am   BACKBONE|DICT|INTERRES
    95   49   50 1    
    96   49  115 1    
    97   50   51 1    
    98   50   52 1    
    99   50  116 1    
   100   51  117 1    
   101   51  118 1    
   102   51  119 1    
   103   52   53 2    
   104   52   54 am   BACKBONE|DICT|INTERRES
   105   54   55 1    
   106   54  120 1    
   107   55   56 1    
   108   55   57 1    
   109   55  121 1    
   110   56  122 1    
   111   56  123 1    
   112   56  124 1    
   113   57   58 2    
   114   57   59 am   BACKBONE|DICT|INTERRES
   115   59   60 1    
   116   59  125 1    
   117   60   61 1    
   118   60   62 1    
   119   60  126 1    
   120   61  127 1    
   121   61  128 1    
   122   61  129 1    
   123   62   63 2    
   124   62   64 am   BACKBONE|DICT|INTERRES
   125   64   65 1    
   126   64  130 1    
   127   65   66 1    
   128   65   69 1    
   129   65  131 1    
   130   66   67 am   BACKBONE|DICT|INTERRES
   131   66   68 2    
   132   67  132 1    
   133   67  133 1    
   134   69   70 1    
   135   69  134 1    
   136   69  135 1    
   137   70   71 1    
   138   71  136 1    
   139   71  137 1    
@<TRIPOS>SUBSTRUCTURE
     1 UNK         1 GROUP             0       ****    0 ROOT    
