@<TRIPOS>MOLECULE
3R137
137   139    1
SMALL
USER_CHARGES


@<TRIPOS>ATOM
      1 CA         26.8704   -2.6439   -4.3350 C.3       0 UNK        -0.2020 
      2 C          26.7456   -3.6245   -3.1798 C.2       0 UNK         0.4855 
      3 O          25.8736   -4.4946   -3.2027 O.2       0 UNK        -0.5197 
      4 N          27.6069   -3.4953   -2.1630 N.am      1 UNK        -0.4892 
      5 CA         27.5651   -4.2908   -0.9320 C.3       1 UNK         0.0835 
      6 C6         28.8371   -4.1069   -0.0697 C.3       12 UNK        -0.0855 
      7 S7         30.3040   -4.8515   -0.8576 S.3       12 UNK        -0.2931 
      8 C8         31.3812   -3.4072   -1.1176 C.3       12 UNK         0.0378 
      9 C9         30.8872   -2.5119   -2.2451 C.ar      12 UNK        -0.0802 
     10 C10        30.9615   -2.9508   -3.5696 C.ar      12 UNK        -0.0944 
     11 C11        30.5528   -2.1274   -4.6228 C.ar      12 UNK        -0.0787 
     12 C12        30.0617   -0.8467   -4.3339 C.ar      12 UNK        -0.0862 
     13 C13        29.9881   -0.3928   -3.0130 C.ar      12 UNK        -0.0733 
     14 C14        30.3941   -1.2335   -1.9721 C.ar      12 UNK        -0.0832 
     15 C15        29.5087    1.0182   -2.7049 C.3       12 UNK         0.0240 
     16 S16        27.7017    1.1728   -2.8529 S.3       12 UNK        -0.2522 
     17 C17        27.5139    1.9604   -4.4916 C.3       12 UNK        -0.0967 
     18 CA         26.4183    1.2947   -5.3648 C.3       5 UNK         0.0660 
     19 N          25.1272    1.2435   -4.6693 N.am      5 UNK        -0.4015 
     20 C          24.1350    0.3857   -4.9295 C.2       4 UNK         0.4946 
     21 O          24.1575   -0.4279   -5.8578 O.2       4 UNK        -0.5353 
     22 CA         22.8955    0.4696   -4.0238 C.3       4 UNK         0.0277 
     23 CB         21.7598    1.2214   -4.7369 C.3       4 UNK        -0.1981 
     24 N          22.4324   -0.8666   -3.6442 N.am      4 UNK        -0.4209 
     25 C          23.1273   -1.7086   -2.8682 C.2       3 UNK         0.4942 
     26 O          24.1812   -1.4015   -2.3053 O.2       3 UNK        -0.5208 
     27 CA         22.5509   -3.1269   -2.7222 C.3       3 UNK         0.0250 
     28 CB         22.5906   -3.8780   -4.0658 C.3       3 UNK        -0.1990 
     29 N          23.3115   -3.8928   -1.7340 N.am      3 UNK        -0.4232 
     30 C          23.0409   -3.9259   -0.4214 C.2       2 UNK         0.4993 
     31 O          22.0581   -3.3830    0.0862 O.2       2 UNK        -0.5286 
     32 CA         24.0104   -4.7045    0.4881 C.3       2 UNK         0.0209 
     33 CB         23.4248   -6.0817    0.8429 C.3       2 UNK        -0.1931 
     34 N          25.3347   -4.8890   -0.1108 N.am      2 UNK        -0.4546 
     35 C          26.2916   -3.9517   -0.1314 C.2       1 UNK         0.5154 
     36 O          26.1964   -2.8589    0.4314 O.2       1 UNK        -0.5181 
     37 C          26.2860    1.9735   -6.7479 C.2       5 UNK         0.5014 
     38 O          26.9666    2.9627   -7.0214 O.2       5 UNK        -0.5248 
     39 N          25.4062    1.4395   -7.6044 N.am      6 UNK        -0.4434 
     40 CA         25.1281    1.9462   -8.9528 C.3       6 UNK         0.0363 
     41 CB         23.8863    1.2328   -9.5108 C.3       6 UNK        -0.1936 
     42 C          26.3147    1.8025   -9.9243 C.2       6 UNK         0.5081 
     43 O          26.4048    2.5650  -10.8864 O.2       6 UNK        -0.5248 
     44 N          27.2019    0.8382   -9.6510 N.am      7 UNK        -0.4718 
     45 CA         28.3939    0.5273  -10.4400 C.3       7 UNK         0.0273 
     46 CB         28.4554   -0.9976  -10.6497 C.3       7 UNK        -0.1935 
     47 C          29.6837    1.0555   -9.7855 C.2       7 UNK         0.5018 
     48 O          30.7526    0.5204  -10.0784 O.2       7 UNK        -0.5186 
     49 N          29.5886    2.0790   -8.9188 N.am      8 UNK        -0.4240 
     50 CA         30.6848    2.6299   -8.1015 C.3       8 UNK         0.0235 
     51 CB         30.2050    3.8903   -7.3644 C.3       8 UNK        -0.2000 
     52 C          32.0019    2.9284   -8.8447 C.2       8 UNK         0.4941 
     53 O          33.0741    2.7218   -8.2748 O.2       8 UNK        -0.5273 
     54 N          31.9023    3.3658  -10.1079 N.am      9 UNK        -0.4262 
     55 CA         33.0380    3.6001  -11.0047 C.3       9 UNK         0.0264 
     56 CB         32.5409    4.3104  -12.2743 C.3       9 UNK        -0.1955 
     57 C          33.8196    2.3232  -11.3742 C.2       9 UNK         0.5031 
     58 O          35.0173    2.4182  -11.6470 O.2       9 UNK        -0.5390 
     59 N          33.1459    1.1645  -11.3771 N.am      10 UNK        -0.4204 
     60 CA         33.7540   -0.1513  -11.5745 C.3       10 UNK         0.0237 
     61 CB         32.7645   -1.0769  -12.3023 C.3       10 UNK        -0.1985 
     62 C          34.1902   -0.7681  -10.2365 C.2       10 UNK         0.4970 
     63 O          35.2211   -1.4414  -10.2032 O.2       10 UNK        -0.4914 
     64 N          33.4155   -0.5309   -9.1666 N.am      11 UNK        -0.4285 
     65 CA         33.7338   -0.9609   -7.7941 C.3       11 UNK         0.1007 
     66 C          35.0416   -0.3287   -7.2418 C.2       11 UNK         0.5703 
     67 N          35.2654    0.9643   -7.4458 N.am      11 UNK        -0.7361 
     68 O          35.8543   -1.0159   -6.6278 O.2       11 UNK        -0.4986 
     69 C69        32.5725   -0.7066   -6.7987 C.3       12 UNK        -0.0947 
     70 S70        30.9693   -1.3989   -7.3285 S.3       12 UNK        -0.2240 
     71 C71        30.6504   -2.6620   -6.0524 C.3       12 UNK         0.0194 
     72 H72        27.4272   -3.0929   -5.1563 H         1 UNK         0.0906 
     73 H73        25.8821   -2.3658   -4.7004 H         1 UNK         0.0906 
     74 H74        27.3776   -1.7308   -4.0268 H         1 UNK         0.0906 
     75 H75        28.3194   -2.7791   -2.1983 H         1 UNK         0.3140 
     76 H76        27.5121   -5.3431   -1.2212 H         1 UNK         0.1085 
     77 H77        28.7149   -4.5938    0.9001 H         1 UNK         0.0836 
     78 H78        29.0121   -3.0510    0.1448 H         1 UNK         0.0836 
     79 H79        31.4770   -2.8509   -0.1837 H         1 UNK         0.0731 
     80 H80        32.3841   -3.7603   -1.3621 H         1 UNK         0.0731 
     81 H81        31.3442   -3.9409   -3.7779 H         1 UNK         0.1312 
     82 H82        29.7411   -0.1958   -5.1345 H         1 UNK         0.1406 
     83 H83        30.3464   -0.8834   -0.9495 H         1 UNK         0.1631 
     84 H84        30.0158    1.7347   -3.3523 H         1 UNK         0.0717 
     85 H85        29.7881    1.2954   -1.6874 H         1 UNK         0.0717 
     86 H86        27.2896    3.0168   -4.3305 H         1 UNK         0.0934 
     87 H87        28.4689    1.9341   -5.0189 H         1 UNK         0.0934 
     88 H88        26.7383    0.2679   -5.5555 H         1 UNK         0.0739 
     89 H89        25.0232    1.8888   -3.8999 H         1 UNK         0.3093 
     90 H90        23.1538    1.0106   -3.1107 H         1 UNK         0.0818 
     91 H91        20.8821    1.3161   -4.0972 H         1 UNK         0.0819 
     92 H92        22.0706    2.2308   -5.0098 H         1 UNK         0.0819 
     93 H93        21.4546    0.7164   -5.6546 H         1 UNK         0.0819 
     94 H94        21.5941   -1.1997   -4.0976 H         1 UNK         0.3041 
     95 H95        21.5103   -3.0435   -2.4010 H         1 UNK         0.0784 
     96 H96        21.9498   -3.4001   -4.8074 H         1 UNK         0.0793 
     97 H97        23.5979   -3.9096   -4.4825 H         1 UNK         0.0793 
     98 H98        22.2423   -4.9052   -3.9563 H         1 UNK         0.0793 
     99 H99        24.1872   -4.2860   -2.0642 H         1 UNK         0.3024 
    100 H100       24.1176   -4.1306    1.4119 H         1 UNK         0.1171 
    101 H101       23.2914   -6.7050   -0.0422 H         1 UNK         0.0786 
    102 H102       22.4487   -5.9795    1.3193 H         1 UNK         0.0786 
    103 H103       24.0683   -6.6193    1.5397 H         1 UNK         0.0786 
    104 H104       25.4854   -5.7501   -0.6179 H         1 UNK         0.2977 
    105 H105       24.8659    0.6399   -7.2799 H         1 UNK         0.3127 
    106 H106       24.9031    3.0117   -8.8700 H         1 UNK         0.0770 
    107 H107       24.0442    0.1571   -9.5979 H         1 UNK         0.0814 
    108 H108       23.6337    1.6073  -10.5038 H         1 UNK         0.0814 
    109 H109       23.0162    1.3941   -8.8741 H         1 UNK         0.0814 
    110 H110       27.0473    0.2728   -8.8285 H         1 UNK         0.2983 
    111 H111       28.3270    0.9978  -11.4232 H         1 UNK         0.0947 
    112 H112       29.2772   -1.2718  -11.3124 H         1 UNK         0.0806 
    113 H113       27.5392   -1.3735  -11.1053 H         1 UNK         0.0806 
    114 H114       28.6061   -1.5281   -9.7085 H         1 UNK         0.0806 
    115 H115       28.6666    2.4517   -8.7333 H         1 UNK         0.3000 
    116 H116       30.9121    1.8758   -7.3482 H         1 UNK         0.0850 
    117 H117       29.8137    4.6386   -8.0544 H         1 UNK         0.0810 
    118 H118       29.4245    3.6565   -6.6422 H         1 UNK         0.0810 
    119 H119       31.0194    4.3546   -6.8059 H         1 UNK         0.0810 
    120 H120       30.9790    3.5044  -10.4923 H         1 UNK         0.3040 
    121 H121       33.7327    4.2674  -10.4901 H         1 UNK         0.0766 
    122 H122       32.0649    5.2621  -12.0373 H         1 UNK         0.0812 
    123 H123       31.8221    3.7008  -12.8235 H         1 UNK         0.0812 
    124 H124       33.3697    4.5249  -12.9507 H         1 UNK         0.0812 
    125 H125       32.1745    1.1587  -11.0741 H         1 UNK         0.3205 
    126 H126       34.6415   -0.0512  -12.2032 H         1 UNK         0.0754 
    127 H127       32.4577   -0.6547  -13.2593 H         1 UNK         0.0769 
    128 H128       31.8656   -1.2586  -11.7125 H         1 UNK         0.0769 
    129 H129       33.2195   -2.0470  -12.5065 H         1 UNK         0.0769 
    130 H130       32.5447   -0.0275   -9.2903 H         1 UNK         0.2981 
    131 H131       33.8943   -2.0399   -7.8352 H         1 UNK         0.0541 
    132 H132       34.5566    1.5461   -7.8842 H         1 UNK         0.3459 
    133 H133       36.1119    1.3818   -7.0949 H         1 UNK         0.3459 
    134 H134       32.8310   -1.1166   -5.8209 H         1 UNK         0.0612 
    135 H135       32.4370    0.3633   -6.6405 H         1 UNK         0.0612 
    136 H136       31.4393   -3.4128   -6.1203 H         1 UNK         0.0624 
    137 H137       29.7174   -3.1703   -6.2966 H         1 UNK         0.0624 
@<TRIPOS>BOND
     1    1    2 1    
     2    1   72 1    
     3    1   73 1    
     4    1   74 1    
     5    2    3 2    
     6    2    4 am   BACKBONE|DICT|INTERRES
     7    4    5 1    
     8    4   75 1    
     9    5    6 1    
    10    5   35 1    
    11    5   76 1    
    12    6    7 1    
    13    6   77 1    
    14    6   78 1    
    15    7    8 1    
    16    8    9 1    
    17    8   79 1    
    18    8   80 1    
    19    9   10 ar   
    20    9   14 ar   
    21   10   11 ar   
    22   10   81 1    
    23   11   12 ar   
    24   11   71 1    
    25   12   13 ar   
    26   12   82 1    
    27   13   14 ar   
    28   13   15 1    
    29   14   83 1    
    30   15   16 1    
    31   15   84 1    
    32   15   85 1    
    33   16   17 1    
    34   17   18 1    
    35   17   86 1    
    36   17   87 1    
    37   18   19 1    
    38   18   37 1    
    39   18   88 1    
    40   19   20 am   BACKBONE|DICT|INTERRES
    41   19   89 1    
    42   20   21 2    
    43   20   22 1    
    44   22   23 1    
    45   22   24 1    
    46   22   90 1    
    47   23   91 1    
    48   23   92 1    
    49   23   93 1    
    50   24   25 am   BACKBONE|DICT|INTERRES
    51   24   94 1    
    52   25   26 2    
    53   25   27 1    
    54   27   28 1    
    55   27   29 1    
    56   27   95 1    
    57   28   96 1    
    58   28   97 1    
    59   28   98 1    
    60   29   30 am   BACKBONE|DICT|INTERRES
    61   29   99 1    
    62   30   31 2    
    63   30   32 1    
    64   32   33 1    
    65   32   34 1    
    66   32  100 1    
    67   33  101 1    
    68   33  102 1    
    69   33  103 1    
    70   34   35 am   BACKBONE|DICT|INTERRES
    71   34  104 1    
    72   35   36 2    
    73   37   38 2    
    74   37   39 am   BACKBONE|DICT|INTERRES
    75   39   40 1    
    76   39  105 1    
    77   40   41 1    
    78   40   42 1    
    79   40  106 1    
    80   41  107 1    
    81   41  108 1    
    82   41  109 1    
    83   42   43 2    
    84   42   44 am   BACKBONE|DICT|INTERRES
    85   44   45 1    
    86   44  110 1    
    87   45   46 1    
    88   45   47 1    
    89   45  111 1    
    90   46  112 1    
    91   46  113 1    
    92   46  114 1    
    93   47   48 2    
    94   47   49 am   BACKBONE|DICT|INTERRES
    95   49   50 1    
    96   49  115 1    
    97   50   51 1    
    98   50   52 1    
    99   50  116 1    
   100   51  117 1    
   101   51  118 1    
   102   51  119 1    
   103   52   53 2    
   104   52   54 am   BACKBONE|DICT|INTERRES
   105   54   55 1    
   106   54  120 1    
   107   55   56 1    
   108   55   57 1    
   109   55  121 1    
   110   56  122 1    
   111   56  123 1    
   112   56  124 1    
   113   57   58 2    
   114   57   59 am   BACKBONE|DICT|INTERRES
   115   59   60 1    
   116   59  125 1    
   117   60   61 1    
   118   60   62 1    
   119   60  126 1    
   120   61  127 1    
   121   61  128 1    
   122   61  129 1    
   123   62   63 2    
   124   62   64 am   BACKBONE|DICT|INTERRES
   125   64   65 1    
   126   64  130 1    
   127   65   66 1    
   128   65   69 1    
   129   65  131 1    
   130   66   67 am   BACKBONE|DICT|INTERRES
   131   66   68 2    
   132   67  132 1    
   133   67  133 1    
   134   69   70 1    
   135   69  134 1    
   136   69  135 1    
   137   70   71 1    
   138   71  136 1    
   139   71  137 1    
@<TRIPOS>SUBSTRUCTURE
     1 UNK         1 GROUP             0       ****    0 ROOT    
