@<TRIPOS>MOLECULE
3R137
137   139    1
SMALL
USER_CHARGES


@<TRIPOS>ATOM
      1 CA         26.7197   -5.8375    0.5682 C.3       0 UNK        -0.2020 
      2 C          27.0275   -4.5292   -0.1437 C.2       0 UNK         0.4855 
      3 O          26.9470   -4.4713   -1.3694 O.2       0 UNK        -0.5197 
      4 N          27.3603   -3.4780    0.6188 N.am      1 UNK        -0.4892 
      5 CA         27.7506   -2.1191    0.1934 C.3       1 UNK         0.0835 
      6 C6         28.9677   -2.0669   -0.7669 C.3       12 UNK        -0.0855 
      7 S7         30.4017   -3.0449   -0.1978 S.3       12 UNK        -0.2931 
      8 C8         31.6369   -2.6757   -1.4956 C.3       12 UNK         0.0378 
      9 C9         31.2437   -3.0483   -2.9288 C.ar      12 UNK        -0.0802 
     10 C10        31.9205   -2.4312   -3.9853 C.ar      12 UNK        -0.0944 
     11 C11        31.5911   -2.7046   -5.3207 C.ar      12 UNK        -0.0787 
     12 C12        30.5676   -3.6201   -5.5855 C.ar      12 UNK        -0.0862 
     13 C13        29.8837   -4.2532   -4.5441 C.ar      12 UNK        -0.0733 
     14 C14        30.2396   -3.9788   -3.2223 C.ar      12 UNK        -0.0832 
     15 C15        28.7537   -5.2302   -4.8312 C.3       12 UNK         0.0240 
     16 S16        27.1600   -4.3730   -5.0467 S.3       12 UNK        -0.2522 
     17 C17        27.1463   -4.0605   -6.8454 C.3       12 UNK        -0.0967 
     18 CA         26.8017   -2.6109   -7.2628 C.3       5 UNK         0.0660 
     19 N          25.5019   -2.1515   -6.7765 N.am      5 UNK        -0.4015 
     20 C          24.4116   -2.0375   -7.5477 C.2       4 UNK         0.4946 
     21 O          24.3273   -2.4959   -8.6880 O.2       4 UNK        -0.5353 
     22 CA         23.2089   -1.2539   -6.9852 C.3       4 UNK         0.0277 
     23 CB         22.1231   -2.2254   -6.4938 C.3       4 UNK        -0.1981 
     24 N          23.5287   -0.3148   -5.9063 N.am      4 UNK        -0.4209 
     25 C          24.4493    0.6609   -5.9356 C.2       3 UNK         0.4942 
     26 O          25.1437    0.9311   -6.9164 O.2       3 UNK        -0.5208 
     27 CA         24.7030    1.4024   -4.6106 C.3       3 UNK         0.0250 
     28 CB         23.8680    2.6905   -4.5502 C.3       3 UNK        -0.1990 
     29 N          24.4481    0.5925   -3.4097 N.am      3 UNK        -0.4232 
     30 C          25.0279   -0.5844   -3.1284 C.2       2 UNK         0.4993 
     31 O          25.8307   -1.1495   -3.8769 O.2       2 UNK        -0.5286 
     32 CA         24.5718   -1.2839   -1.8420 C.3       2 UNK         0.0209 
     33 CB         23.5264   -2.3621   -2.1709 C.3       2 UNK        -0.1931 
     34 N          25.7044   -1.9145   -1.1696 N.am      2 UNK        -0.4546 
     35 C          26.5838   -1.2852   -0.3826 C.2       1 UNK         0.5154 
     36 O          26.4943   -0.0918   -0.0894 O.2       1 UNK        -0.5181 
     37 C          27.9087   -1.5881   -6.9484 C.2       5 UNK         0.5014 
     38 O          28.7516   -1.3603   -7.8157 O.2       5 UNK        -0.5248 
     39 N          27.8926   -0.9589   -5.7622 N.am      6 UNK        -0.4434 
     40 CA         28.9405   -0.0363   -5.3131 C.3       6 UNK         0.0363 
     41 CB         28.7408    0.3136   -3.8328 C.3       6 UNK        -0.1936 
     42 C          29.0697    1.2385   -6.1584 C.2       6 UNK         0.5081 
     43 O          30.1923    1.6607   -6.4363 O.2       6 UNK        -0.5248 
     44 N          27.9389    1.8262   -6.5682 N.am      7 UNK        -0.4718 
     45 CA         27.9242    2.9849   -7.4620 C.3       7 UNK         0.0273 
     46 CB         26.6900    3.8595   -7.1871 C.3       7 UNK        -0.1935 
     47 C          27.9699    2.5340   -8.9267 C.2       7 UNK         0.5018 
     48 O          28.6872    3.1438   -9.7185 O.2       7 UNK        -0.5186 
     49 N          27.2370    1.4583   -9.2529 N.am      8 UNK        -0.4240 
     50 CA         27.1310    0.8933  -10.6022 C.3       8 UNK         0.0235 
     51 CB         26.0990   -0.2432  -10.6081 C.3       8 UNK        -0.2000 
     52 C          28.4711    0.4187  -11.1935 C.2       8 UNK         0.4941 
     53 O          28.7341    0.6903  -12.3654 O.2       8 UNK        -0.5273 
     54 N          29.3035   -0.2463  -10.3788 N.am      9 UNK        -0.4262 
     55 CA         30.6577   -0.6750  -10.7490 C.3       9 UNK         0.0264 
     56 CB         30.9402   -2.0575  -10.1369 C.3       9 UNK        -0.1955 
     57 C          31.7397    0.3535  -10.3600 C.2       9 UNK         0.5031 
     58 O          32.9232    0.0698  -10.5505 O.2       9 UNK        -0.5390 
     59 N          31.3262    1.5253   -9.8522 N.am      10 UNK        -0.4204 
     60 CA         32.1443    2.6949   -9.5140 C.3       10 UNK         0.0237 
     61 CB         32.7163    3.3401  -10.7951 C.3       10 UNK        -0.1985 
     62 C          33.2180    2.4356   -8.4380 C.2       10 UNK         0.4970 
     63 O          34.3382    2.9369   -8.5590 O.2       10 UNK        -0.4914 
     64 N          32.8499    1.6973   -7.3842 N.am      11 UNK        -0.4285 
     65 CA         33.6268    1.6207   -6.1374 C.3       11 UNK         0.1007 
     66 C          33.4068    2.8735   -5.2453 C.2       11 UNK         0.5703 
     67 N          32.2111    3.4523   -5.2269 N.am      11 UNK        -0.7361 
     68 O          34.3299    3.3250   -4.5719 O.2       11 UNK        -0.4986 
     69 C69        33.3231    0.3360   -5.3288 C.3       12 UNK        -0.0947 
     70 S70        33.8583   -1.1868   -6.1778 S.3       12 UNK        -0.2240 
     71 C71        32.2647   -2.0119   -6.5110 C.3       12 UNK         0.0194 
     72 H72        27.3992   -6.6174    0.2254 H         1 UNK         0.0906 
     73 H73        26.8227   -5.7496    1.6496 H         1 UNK         0.0906 
     74 H74        25.7002   -6.1531    0.3483 H         1 UNK         0.0906 
     75 H75        27.3726   -3.6091    1.6211 H         1 UNK         0.3140 
     76 H76        28.0505   -1.6130    1.1128 H         1 UNK         0.1085 
     77 H77        28.6686   -2.4179   -1.7545 H         1 UNK         0.0836 
     78 H78        29.2970   -1.0342   -0.8978 H         1 UNK         0.0836 
     79 H79        31.8644   -1.6095   -1.4474 H         1 UNK         0.0731 
     80 H80        32.5613   -3.1985   -1.2470 H         1 UNK         0.0731 
     81 H81        32.7017   -1.7259   -3.7479 H         1 UNK         0.1312 
     82 H82        30.2925   -3.8274   -6.6101 H         1 UNK         0.1406 
     83 H83        29.7060   -4.4769   -2.4245 H         1 UNK         0.1631 
     84 H84        28.9846   -5.8385   -5.7068 H         1 UNK         0.0717 
     85 H85        28.6524   -5.9312   -4.0011 H         1 UNK         0.0717 
     86 H86        28.0989   -4.3542   -7.2878 H         1 UNK         0.0934 
     87 H87        26.4109   -4.7375   -7.2828 H         1 UNK         0.0934 
     88 H88        26.7703   -2.6324   -8.3532 H         1 UNK         0.0739 
     89 H89        25.4779   -1.7833   -5.8323 H         1 UNK         0.3093 
     90 H90        22.7998   -0.6663   -7.8096 H         1 UNK         0.0818 
     91 H91        21.2192   -1.6949   -6.1936 H         1 UNK         0.0819 
     92 H92        21.8377   -2.9239   -7.2819 H         1 UNK         0.0819 
     93 H93        22.4661   -2.8167   -5.6436 H         1 UNK         0.0819 
     94 H94        23.0264   -0.4477   -5.0413 H         1 UNK         0.3041 
     95 H95        25.7568    1.6837   -4.5936 H         1 UNK         0.0784 
     96 H96        24.0518    3.3174   -5.4240 H         1 UNK         0.0793 
     97 H97        22.7984    2.4789   -4.5210 H         1 UNK         0.0793 
     98 H98        24.1179    3.2851   -3.6712 H         1 UNK         0.0793 
     99 H99        23.7879    0.9762   -2.7480 H         1 UNK         0.3024 
    100 H100       24.1238   -0.5504   -1.1677 H         1 UNK         0.1171 
    101 H101       23.1816   -2.8675   -1.2685 H         1 UNK         0.0786 
    102 H102       22.6498   -1.9273   -2.6529 H         1 UNK         0.0786 
    103 H103       23.9287   -3.1202   -2.8451 H         1 UNK         0.0786 
    104 H104       25.9186   -2.8769   -1.4199 H         1 UNK         0.2977 
    105 H105       27.1751   -1.1848   -5.0746 H         1 UNK         0.3127 
    106 H106       29.8877   -0.5672   -5.3947 H         1 UNK         0.0770 
    107 H107       27.8193    0.8699   -3.6639 H         1 UNK         0.0814 
    108 H108       29.5657    0.9228   -3.4609 H         1 UNK         0.0814 
    109 H109       28.7027   -0.5884   -3.2257 H         1 UNK         0.0814 
    110 H110       27.0464    1.3888   -6.3711 H         1 UNK         0.2983 
    111 H111       28.8076    3.5999   -7.2737 H         1 UNK         0.0947 
    112 H112       26.7384    4.7832   -7.7652 H         1 UNK         0.0806 
    113 H113       26.6269    4.1390   -6.1354 H         1 UNK         0.0806 
    114 H114       25.7600    3.3617   -7.4598 H         1 UNK         0.0806 
    115 H115       26.6558    1.0448   -8.5334 H         1 UNK         0.3000 
    116 H116       26.7558    1.6888  -11.2497 H         1 UNK         0.0850 
    117 H117       25.9415   -0.6217  -11.6189 H         1 UNK         0.0810 
    118 H118       25.1315    0.0911  -10.2325 H         1 UNK         0.0810 
    119 H119       26.4238   -1.0826   -9.9958 H         1 UNK         0.0810 
    120 H120       29.0084   -0.4747   -9.4300 H         1 UNK         0.3040 
    121 H121       30.7178   -0.7872  -11.8335 H         1 UNK         0.0766 
    122 H122       30.1986   -2.7901  -10.4555 H         1 UNK         0.0812 
    123 H123       30.9293   -2.0257   -9.0502 H         1 UNK         0.0812 
    124 H124       31.9178   -2.4327  -10.4423 H         1 UNK         0.0812 
    125 H125       30.3279    1.6664   -9.7585 H         1 UNK         0.3205 
    126 H126       31.4568    3.4164   -9.0699 H         1 UNK         0.0754 
    127 H127       33.2129    4.2851  -10.5715 H         1 UNK         0.0769 
    128 H128       31.9269    3.5547  -11.5157 H         1 UNK         0.0769 
    129 H129       33.4483    2.6940  -11.2810 H         1 UNK         0.0769 
    130 H130       31.8814    1.4022   -7.3108 H         1 UNK         0.2981 
    131 H131       34.6884    1.5991   -6.3918 H         1 UNK         0.0541 
    132 H132       31.4398    3.0273   -5.7299 H         1 UNK         0.3459 
    133 H133       32.0601    4.2676   -4.6551 H         1 UNK         0.3459 
    134 H134       33.8453    0.3600   -4.3703 H         1 UNK         0.0612 
    135 H135       32.2593    0.2795   -5.0924 H         1 UNK         0.0612 
    136 H136       32.4456   -2.7541   -7.2895 H         1 UNK         0.0624 
    137 H137       31.5755   -1.2804   -6.9342 H         1 UNK         0.0624 
@<TRIPOS>BOND
     1    1    2 1    
     2    1   72 1    
     3    1   73 1    
     4    1   74 1    
     5    2    3 2    
     6    2    4 am   BACKBONE|DICT|INTERRES
     7    4    5 1    
     8    4   75 1    
     9    5    6 1    
    10    5   35 1    
    11    5   76 1    
    12    6    7 1    
    13    6   77 1    
    14    6   78 1    
    15    7    8 1    
    16    8    9 1    
    17    8   79 1    
    18    8   80 1    
    19    9   10 ar   
    20    9   14 ar   
    21   10   11 ar   
    22   10   81 1    
    23   11   12 ar   
    24   11   71 1    
    25   12   13 ar   
    26   12   82 1    
    27   13   14 ar   
    28   13   15 1    
    29   14   83 1    
    30   15   16 1    
    31   15   84 1    
    32   15   85 1    
    33   16   17 1    
    34   17   18 1    
    35   17   86 1    
    36   17   87 1    
    37   18   19 1    
    38   18   37 1    
    39   18   88 1    
    40   19   20 am   BACKBONE|DICT|INTERRES
    41   19   89 1    
    42   20   21 2    
    43   20   22 1    
    44   22   23 1    
    45   22   24 1    
    46   22   90 1    
    47   23   91 1    
    48   23   92 1    
    49   23   93 1    
    50   24   25 am   BACKBONE|DICT|INTERRES
    51   24   94 1    
    52   25   26 2    
    53   25   27 1    
    54   27   28 1    
    55   27   29 1    
    56   27   95 1    
    57   28   96 1    
    58   28   97 1    
    59   28   98 1    
    60   29   30 am   BACKBONE|DICT|INTERRES
    61   29   99 1    
    62   30   31 2    
    63   30   32 1    
    64   32   33 1    
    65   32   34 1    
    66   32  100 1    
    67   33  101 1    
    68   33  102 1    
    69   33  103 1    
    70   34   35 am   BACKBONE|DICT|INTERRES
    71   34  104 1    
    72   35   36 2    
    73   37   38 2    
    74   37   39 am   BACKBONE|DICT|INTERRES
    75   39   40 1    
    76   39  105 1    
    77   40   41 1    
    78   40   42 1    
    79   40  106 1    
    80   41  107 1    
    81   41  108 1    
    82   41  109 1    
    83   42   43 2    
    84   42   44 am   BACKBONE|DICT|INTERRES
    85   44   45 1    
    86   44  110 1    
    87   45   46 1    
    88   45   47 1    
    89   45  111 1    
    90   46  112 1    
    91   46  113 1    
    92   46  114 1    
    93   47   48 2    
    94   47   49 am   BACKBONE|DICT|INTERRES
    95   49   50 1    
    96   49  115 1    
    97   50   51 1    
    98   50   52 1    
    99   50  116 1    
   100   51  117 1    
   101   51  118 1    
   102   51  119 1    
   103   52   53 2    
   104   52   54 am   BACKBONE|DICT|INTERRES
   105   54   55 1    
   106   54  120 1    
   107   55   56 1    
   108   55   57 1    
   109   55  121 1    
   110   56  122 1    
   111   56  123 1    
   112   56  124 1    
   113   57   58 2    
   114   57   59 am   BACKBONE|DICT|INTERRES
   115   59   60 1    
   116   59  125 1    
   117   60   61 1    
   118   60   62 1    
   119   60  126 1    
   120   61  127 1    
   121   61  128 1    
   122   61  129 1    
   123   62   63 2    
   124   62   64 am   BACKBONE|DICT|INTERRES
   125   64   65 1    
   126   64  130 1    
   127   65   66 1    
   128   65   69 1    
   129   65  131 1    
   130   66   67 am   BACKBONE|DICT|INTERRES
   131   66   68 2    
   132   67  132 1    
   133   67  133 1    
   134   69   70 1    
   135   69  134 1    
   136   69  135 1    
   137   70   71 1    
   138   71  136 1    
   139   71  137 1    
@<TRIPOS>SUBSTRUCTURE
     1 UNK         1 GROUP             0       ****    0 ROOT    
