@<TRIPOS>MOLECULE
3R137
137   139    1
SMALL
USER_CHARGES


@<TRIPOS>ATOM
      1 CA         30.8021   -0.5353   -1.9735 C.3       0 UNK        -0.2020 
      2 C          30.0875   -0.2435   -0.6595 C.2       0 UNK         0.4855 
      3 O          30.3846    0.7655   -0.0230 O.2       0 UNK        -0.5197 
      4 N          29.1468   -1.0787   -0.2050 N.am      1 UNK        -0.4892 
      5 CA         28.5940   -2.2705   -0.8589 C.3       1 UNK         0.0835 
      6 C6         28.9840   -3.5781   -0.1243 C.3       12 UNK        -0.0855 
      7 S7         30.7849   -3.8687   -0.1022 S.3       12 UNK        -0.2931 
      8 C8         30.9714   -5.2420   -1.2848 C.3       12 UNK         0.0378 
      9 C9         30.7875   -4.8066   -2.7339 C.ar      12 UNK        -0.0802 
     10 C10        31.6921   -3.9156   -3.3177 C.ar      12 UNK        -0.0944 
     11 C11        31.5735   -3.5590   -4.6635 C.ar      12 UNK        -0.0787 
     12 C12        30.5461   -4.1119   -5.4337 C.ar      12 UNK        -0.0862 
     13 C13        29.6333   -5.0122   -4.8662 C.ar      12 UNK        -0.0733 
     14 C14        29.7575   -5.3445   -3.5120 C.ar      12 UNK        -0.0832 
     15 C15        28.5617   -5.7127   -5.7026 C.3       12 UNK         0.0240 
     16 S16        27.9105   -4.7402   -7.1009 S.3       12 UNK        -0.2522 
     17 C17        26.7725   -3.6056   -6.2458 C.3       12 UNK        -0.0967 
     18 CA         26.4853   -2.3417   -7.0926 C.3       5 UNK         0.0660 
     19 N          25.1664   -1.7753   -6.8036 N.am      5 UNK        -0.4015 
     20 C          24.5385   -0.8715   -7.5683 C.2       4 UNK         0.4946 
     21 O          24.9975   -0.4222   -8.6178 O.2       4 UNK        -0.5353 
     22 CA         23.1805   -0.3598   -7.0606 C.3       4 UNK         0.0277 
     23 CB         22.0550   -1.3330   -7.4462 C.3       4 UNK        -0.1981 
     24 N          23.1682   -0.1368   -5.6128 N.am      4 UNK        -0.4209 
     25 C          23.8714    0.8252   -4.9995 C.2       3 UNK         0.4942 
     26 O          24.5695    1.6484   -5.5927 O.2       3 UNK        -0.5208 
     27 CA         23.8209    0.8448   -3.4611 C.3       3 UNK         0.0250 
     28 CB         22.5519    1.5616   -2.9720 C.3       3 UNK        -0.1990 
     29 N          23.9234   -0.4739   -2.8164 N.am      3 UNK        -0.4232 
     30 C          24.9124   -1.3540   -3.0250 C.2       2 UNK         0.4993 
     31 O          25.7652   -1.2323   -3.9045 O.2       2 UNK        -0.5286 
     32 CA         24.9823   -2.5897   -2.1172 C.3       2 UNK         0.0209 
     33 CB         24.4060   -3.8215   -2.8333 C.3       2 UNK        -0.1931 
     34 N          26.3861   -2.8381   -1.7749 N.am      2 UNK        -0.4546 
     35 C          27.0631   -2.1021   -0.8841 C.2       1 UNK         0.5154 
     36 O          26.5175   -1.3126   -0.1056 O.2       1 UNK        -0.5181 
     37 C          27.5929   -1.2831   -6.9431 C.2       5 UNK         0.5014 
     38 O          28.4487   -1.1758   -7.8199 O.2       5 UNK        -0.5248 
     39 N          27.5164   -0.4867   -5.8674 N.am      6 UNK        -0.4434 
     40 CA         28.3957    0.6449   -5.5758 C.3       6 UNK         0.0363 
     41 CB         28.0062    1.2630   -4.2237 C.3       6 UNK        -0.1936 
     42 C          28.3937    1.7078   -6.6841 C.2       6 UNK         0.5081 
     43 O          29.4549    2.2453   -7.0020 O.2       6 UNK        -0.5248 
     44 N          27.2152    1.9646   -7.2677 N.am      7 UNK        -0.4718 
     45 CA         27.0443    2.8214   -8.4384 C.3       7 UNK         0.0273 
     46 CB         25.5620    3.1994   -8.5911 C.3       7 UNK        -0.1935 
     47 C          27.5853    2.1675   -9.7208 C.2       7 UNK         0.5018 
     48 O          28.3602    2.8047  -10.4338 O.2       7 UNK        -0.5186 
     49 N          27.1779    0.9174   -9.9913 N.am      8 UNK        -0.4240 
     50 CA         27.5278    0.1673  -11.2035 C.3       8 UNK         0.0235 
     51 CB         26.7107   -1.1331  -11.2677 C.3       8 UNK        -0.2000 
     52 C          29.0285   -0.1345  -11.3419 C.2       8 UNK         0.4941 
     53 O          29.5838    0.0578  -12.4244 O.2       8 UNK        -0.5273 
     54 N          29.6604   -0.5889  -10.2518 N.am      9 UNK        -0.4262 
     55 CA         31.0976   -0.8702  -10.1878 C.3       9 UNK         0.0264 
     56 CB         31.3578   -1.9075   -9.0818 C.3       9 UNK        -0.1955 
     57 C          31.9445    0.3926   -9.9497 C.2       9 UNK         0.5031 
     58 O          33.1667    0.3213  -10.0834 O.2       9 UNK        -0.5390 
     59 N          31.2939    1.5058   -9.5755 N.am      10 UNK        -0.4204 
     60 CA         31.8661    2.8072   -9.2070 C.3       10 UNK         0.0237 
     61 CB         32.5919    3.4548  -10.4056 C.3       10 UNK        -0.1985 
     62 C          32.7358    2.7700   -7.9323 C.2       10 UNK         0.4970 
     63 O          33.5254    3.6904   -7.7121 O.2       10 UNK        -0.4914 
     64 N          32.5717    1.7254   -7.1104 N.am      11 UNK        -0.4285 
     65 CA         33.2439    1.5549   -5.8166 C.3       11 UNK         0.1007 
     66 C          32.5812    2.3399   -4.6469 C.2       11 UNK         0.5703 
     67 N          31.3859    2.8971   -4.8101 N.am      11 UNK        -0.7361 
     68 O          33.1752    2.4628   -3.5784 O.2       11 UNK        -0.4986 
     69 C69        33.4692    0.0553   -5.4857 C.3       12 UNK        -0.0947 
     70 S70        31.9304   -0.9037   -5.2998 S.3       12 UNK        -0.2240 
     71 C71        32.5759   -2.5995   -5.2868 C.3       12 UNK         0.0194 
     72 H72        31.5439    0.2341   -2.1881 H         1 UNK         0.0906 
     73 H73        31.3220   -1.4897   -1.9228 H         1 UNK         0.0906 
     74 H74        30.1030   -0.5590   -2.8080 H         1 UNK         0.0906 
     75 H75        28.6349   -0.8144    0.6267 H         1 UNK         0.3140 
     76 H76        28.9264   -2.3376   -1.8960 H         1 UNK         0.1085 
     77 H77        28.6388   -3.5506    0.9112 H         1 UNK         0.0836 
     78 H78        28.4918   -4.4393   -0.5802 H         1 UNK         0.0836 
     79 H79        31.9730   -5.6597   -1.1731 H         1 UNK         0.0731 
     80 H80        30.2806   -6.0445   -1.0213 H         1 UNK         0.0731 
     81 H81        32.4976   -3.5076   -2.7224 H         1 UNK         0.1312 
     82 H82        30.4752   -3.8503   -6.4804 H         1 UNK         0.1406 
     83 H83        29.0732   -6.0576   -3.0719 H         1 UNK         0.1631 
     84 H84        28.9955   -6.6302   -6.1019 H         1 UNK         0.0717 
     85 H85        27.7243   -6.0188   -5.0734 H         1 UNK         0.0717 
     86 H86        25.8504   -4.1630   -6.0745 H         1 UNK         0.0934 
     87 H87        27.1599   -3.3506   -5.2568 H         1 UNK         0.0934 
     88 H88        26.4616   -2.6352   -8.1445 H         1 UNK         0.0739 
     89 H89        24.7588   -2.0182   -5.9129 H         1 UNK         0.3093 
     90 H90        22.9857    0.5966   -7.5513 H         1 UNK         0.0818 
     91 H91        21.0776   -0.9394   -7.1664 H         1 UNK         0.0819 
     92 H92        22.0380   -1.4996   -8.5243 H         1 UNK         0.0819 
     93 H93        22.1753   -2.3059   -6.9682 H         1 UNK         0.0819 
     94 H94        22.6160   -0.7662   -5.0484 H         1 UNK         0.3041 
     95 H95        24.6828    1.4253   -3.1254 H         1 UNK         0.0784 
     96 H96        22.4616    2.5496   -3.4263 H         1 UNK         0.0793 
     97 H97        21.6487    1.0039   -3.2226 H         1 UNK         0.0793 
     98 H98        22.5687    1.7064   -1.8916 H         1 UNK         0.0793 
     99 H99        23.2531   -0.6647   -2.0851 H         1 UNK         0.3024 
    100 H100       24.4105   -2.4070   -1.2042 H         1 UNK         0.1171 
    101 H101       24.4501   -4.7049   -2.1959 H         1 UNK         0.0786 
    102 H102       23.3591   -3.6664   -3.0976 H         1 UNK         0.0786 
    103 H103       24.9455   -4.0472   -3.7534 H         1 UNK         0.0786 
    104 H104       26.8956   -3.4482   -2.3966 H         1 UNK         0.2977 
    105 H105       26.7921   -0.6852   -5.1749 H         1 UNK         0.3127 
    106 H106       29.4084    0.2554   -5.4955 H         1 UNK         0.0770 
    107 H107       27.0075    1.6994   -4.2544 H         1 UNK         0.0814 
    108 H108       28.7006    2.0548   -3.9417 H         1 UNK         0.0814 
    109 H109       28.0177    0.5203   -3.4263 H         1 UNK         0.0814 
    110 H110       26.3848    1.5133   -6.9018 H         1 UNK         0.2983 
    111 H111       27.6106    3.7406   -8.2712 H         1 UNK         0.0947 
    112 H112       25.4120    3.8525   -9.4518 H         1 UNK         0.0806 
    113 H113       25.1983    3.7316   -7.7119 H         1 UNK         0.0806 
    114 H114       24.9297    2.3221   -8.7316 H         1 UNK         0.0806 
    115 H115       26.5163    0.4697   -9.3606 H         1 UNK         0.3000 
    116 H116       27.2416    0.7844  -12.0579 H         1 UNK         0.0850 
    117 H117       26.9455   -1.7001  -12.1695 H         1 UNK         0.0810 
    118 H118       25.6402   -0.9279  -11.2842 H         1 UNK         0.0810 
    119 H119       26.9142   -1.7785  -10.4127 H         1 UNK         0.0810 
    120 H120       29.1287   -0.7479   -9.3935 H         1 UNK         0.3040 
    121 H121       31.4163   -1.3032  -11.1384 H         1 UNK         0.0766 
    122 H122       30.7918   -2.8231   -9.2538 H         1 UNK         0.0812 
    123 H123       31.0801   -1.5256   -8.0995 H         1 UNK         0.0812 
    124 H124       32.4130   -2.1801   -9.0382 H         1 UNK         0.0812 
    125 H125       30.2868    1.4491   -9.4985 H         1 UNK         0.3205 
    126 H126       31.0133    3.4424   -8.9626 H         1 UNK         0.0754 
    127 H127       32.8734    4.4849  -10.1836 H         1 UNK         0.0769 
    128 H128       31.9525    3.4792  -11.2882 H         1 UNK         0.0769 
    129 H129       33.5047    2.9184  -10.6658 H         1 UNK         0.0769 
    130 H130       31.8655    1.0407   -7.3343 H         1 UNK         0.2981 
    131 H131       34.2403    1.9899   -5.9144 H         1 UNK         0.0541 
    132 H132       30.8717    2.7749   -5.6754 H         1 UNK         0.3459 
    133 H133       30.9815    3.4193   -4.0506 H         1 UNK         0.3459 
    134 H134       34.0539   -0.0488   -4.5699 H         1 UNK         0.0612 
    135 H135       34.0659   -0.4042   -6.2753 H         1 UNK         0.0612 
    136 H136       33.5149   -2.6274   -4.7317 H         1 UNK         0.0624 
    137 H137       32.8093   -2.9046   -6.3079 H         1 UNK         0.0624 
@<TRIPOS>BOND
     1    1    2 1    
     2    1   72 1    
     3    1   73 1    
     4    1   74 1    
     5    2    3 2    
     6    2    4 am   BACKBONE|DICT|INTERRES
     7    4    5 1    
     8    4   75 1    
     9    5    6 1    
    10    5   35 1    
    11    5   76 1    
    12    6    7 1    
    13    6   77 1    
    14    6   78 1    
    15    7    8 1    
    16    8    9 1    
    17    8   79 1    
    18    8   80 1    
    19    9   10 ar   
    20    9   14 ar   
    21   10   11 ar   
    22   10   81 1    
    23   11   12 ar   
    24   11   71 1    
    25   12   13 ar   
    26   12   82 1    
    27   13   14 ar   
    28   13   15 1    
    29   14   83 1    
    30   15   16 1    
    31   15   84 1    
    32   15   85 1    
    33   16   17 1    
    34   17   18 1    
    35   17   86 1    
    36   17   87 1    
    37   18   19 1    
    38   18   37 1    
    39   18   88 1    
    40   19   20 am   BACKBONE|DICT|INTERRES
    41   19   89 1    
    42   20   21 2    
    43   20   22 1    
    44   22   23 1    
    45   22   24 1    
    46   22   90 1    
    47   23   91 1    
    48   23   92 1    
    49   23   93 1    
    50   24   25 am   BACKBONE|DICT|INTERRES
    51   24   94 1    
    52   25   26 2    
    53   25   27 1    
    54   27   28 1    
    55   27   29 1    
    56   27   95 1    
    57   28   96 1    
    58   28   97 1    
    59   28   98 1    
    60   29   30 am   BACKBONE|DICT|INTERRES
    61   29   99 1    
    62   30   31 2    
    63   30   32 1    
    64   32   33 1    
    65   32   34 1    
    66   32  100 1    
    67   33  101 1    
    68   33  102 1    
    69   33  103 1    
    70   34   35 am   BACKBONE|DICT|INTERRES
    71   34  104 1    
    72   35   36 2    
    73   37   38 2    
    74   37   39 am   BACKBONE|DICT|INTERRES
    75   39   40 1    
    76   39  105 1    
    77   40   41 1    
    78   40   42 1    
    79   40  106 1    
    80   41  107 1    
    81   41  108 1    
    82   41  109 1    
    83   42   43 2    
    84   42   44 am   BACKBONE|DICT|INTERRES
    85   44   45 1    
    86   44  110 1    
    87   45   46 1    
    88   45   47 1    
    89   45  111 1    
    90   46  112 1    
    91   46  113 1    
    92   46  114 1    
    93   47   48 2    
    94   47   49 am   BACKBONE|DICT|INTERRES
    95   49   50 1    
    96   49  115 1    
    97   50   51 1    
    98   50   52 1    
    99   50  116 1    
   100   51  117 1    
   101   51  118 1    
   102   51  119 1    
   103   52   53 2    
   104   52   54 am   BACKBONE|DICT|INTERRES
   105   54   55 1    
   106   54  120 1    
   107   55   56 1    
   108   55   57 1    
   109   55  121 1    
   110   56  122 1    
   111   56  123 1    
   112   56  124 1    
   113   57   58 2    
   114   57   59 am   BACKBONE|DICT|INTERRES
   115   59   60 1    
   116   59  125 1    
   117   60   61 1    
   118   60   62 1    
   119   60  126 1    
   120   61  127 1    
   121   61  128 1    
   122   61  129 1    
   123   62   63 2    
   124   62   64 am   BACKBONE|DICT|INTERRES
   125   64   65 1    
   126   64  130 1    
   127   65   66 1    
   128   65   69 1    
   129   65  131 1    
   130   66   67 am   BACKBONE|DICT|INTERRES
   131   66   68 2    
   132   67  132 1    
   133   67  133 1    
   134   69   70 1    
   135   69  134 1    
   136   69  135 1    
   137   70   71 1    
   138   71  136 1    
   139   71  137 1    
@<TRIPOS>SUBSTRUCTURE
     1 UNK         1 GROUP             0       ****    0 ROOT    
