@<TRIPOS>MOLECULE
3R137
137   139    1
SMALL
USER_CHARGES


@<TRIPOS>ATOM
      1 CA         26.1460   -6.5584   -1.3200 C.3       0 UNK        -0.2020 
      2 C          25.9880   -5.2998   -0.4798 C.2       0 UNK         0.4855 
      3 O          25.2205   -5.2966    0.4834 O.2       0 UNK        -0.5197 
      4 N          26.7156   -4.2342   -0.8326 N.am      1 UNK        -0.4892 
      5 CA         26.6218   -2.9084   -0.2157 C.3       1 UNK         0.0835 
      6 C6         27.9007   -2.0636   -0.4747 C.3       12 UNK        -0.0855 
      7 S7         28.4255   -1.9840   -2.2286 S.3       12 UNK        -0.2931 
      8 C8         30.0648   -2.7776   -2.1169 C.3       12 UNK         0.0378 
      9 C9         30.6502   -3.0942   -3.4863 C.ar      12 UNK        -0.0802 
     10 C10        31.8417   -2.4977   -3.9162 C.ar      12 UNK        -0.0944 
     11 C11        32.4015   -2.8429   -5.1518 C.ar      12 UNK        -0.0787 
     12 C12        31.7418   -3.7628   -5.9735 C.ar      12 UNK        -0.0862 
     13 C13        30.5526   -4.3655   -5.5537 C.ar      12 UNK        -0.0733 
     14 C14        30.0225   -4.0375   -4.3032 C.ar      12 UNK        -0.0832 
     15 C15        29.8666   -5.4060   -6.4282 C.3       12 UNK         0.0240 
     16 S16        28.8197   -4.6539   -7.7134 S.3       12 UNK        -0.2522 
     17 C17        27.4357   -3.9743   -6.7297 C.3       12 UNK        -0.0967 
     18 CA         26.8801   -2.6258   -7.2641 C.3       5 UNK         0.0660 
     19 N          25.8205   -2.0471   -6.4442 N.am      5 UNK        -0.4015 
     20 C          24.6699   -2.5951   -6.0540 C.2       4 UNK         0.4946 
     21 O          24.3275   -3.7467   -6.3271 O.2       4 UNK        -0.5353 
     22 CA         23.7360   -1.6832   -5.2306 C.3       4 UNK         0.0277 
     23 CB         22.6346   -2.4758   -4.5015 C.3       4 UNK        -0.1981 
     24 N          24.4271   -0.8352   -4.2496 N.am      4 UNK        -0.4209 
     25 C          25.1222    0.2849   -4.5029 C.2       3 UNK         0.4942 
     26 O          25.4495    0.6231   -5.6427 O.2       3 UNK        -0.5208 
     27 CA         25.5786    1.1575   -3.3131 C.3       3 UNK         0.0250 
     28 CB         25.1828    2.6348   -3.5069 C.3       3 UNK        -0.1990 
     29 N          25.1718    0.6655   -1.9918 N.am      3 UNK        -0.4232 
     30 C          23.9366    0.5446   -1.4797 C.2       2 UNK         0.4993 
     31 O          22.9180    0.9607   -2.0326 O.2       2 UNK        -0.5286 
     32 CA         23.8271   -0.2204   -0.1411 C.3       2 UNK         0.0209 
     33 CB         22.4802   -0.9628   -0.0033 C.3       2 UNK        -0.1931 
     34 N          24.9496   -1.1445    0.1104 N.am      2 UNK        -0.4546 
     35 C          25.3466   -2.1656   -0.6685 C.2       1 UNK         0.5154 
     36 O          24.7904   -2.4717   -1.7272 O.2       1 UNK        -0.5181 
     37 C          27.9566   -1.5378   -7.3964 C.2       5 UNK         0.5014 
     38 O          28.3254   -1.1931   -8.5188 O.2       5 UNK        -0.5248 
     39 N          28.3839   -0.9626   -6.2592 N.am      6 UNK        -0.4434 
     40 CA         29.3918    0.0997   -6.1690 C.3       6 UNK         0.0363 
     41 CB         29.5705    0.5260   -4.7047 C.3       6 UNK        -0.1936 
     42 C          29.1134    1.3360   -7.0389 C.2       6 UNK         0.5081 
     43 O          30.0639    1.9070   -7.5717 O.2       6 UNK        -0.5248 
     44 N          27.8361    1.7138   -7.1954 N.am      7 UNK        -0.4718 
     45 CA         27.4104    2.8172   -8.0622 C.3       7 UNK         0.0273 
     46 CB         25.9381    3.1518   -7.7762 C.3       7 UNK        -0.1935 
     47 C          27.6115    2.5375   -9.5634 C.2       7 UNK         0.5018 
     48 O          27.8498    3.4793  -10.3198 O.2       7 UNK        -0.5186 
     49 N          27.5146    1.2635   -9.9676 N.am      8 UNK        -0.4240 
     50 CA         27.7274    0.8121  -11.3444 C.3       8 UNK         0.0235 
     51 CB         26.8462   -0.4166  -11.6251 C.3       8 UNK        -0.2000 
     52 C          29.2066    0.4907  -11.6010 C.2       8 UNK         0.4941 
     53 O          29.7310    0.8459  -12.6567 O.2       8 UNK        -0.5273 
     54 N          29.8541   -0.1608  -10.6254 N.am      9 UNK        -0.4262 
     55 CA         31.2698   -0.5354  -10.6499 C.3       9 UNK         0.0264 
     56 CB         31.5081   -1.6134   -9.5798 C.3       9 UNK        -0.1955 
     57 C          32.2351    0.6516  -10.4588 C.2       9 UNK         0.5031 
     58 O          33.4217    0.5023  -10.7538 O.2       9 UNK        -0.5390 
     59 N          31.7169    1.7914   -9.9758 N.am      10 UNK        -0.4204 
     60 CA         32.4208    3.0349   -9.6406 C.3       10 UNK         0.0237 
     61 CB         33.0787    3.6677  -10.8860 C.3       10 UNK        -0.1985 
     62 C          33.3890    2.8532   -8.4562 C.2       10 UNK         0.4970 
     63 O          34.5139    3.3562   -8.4908 O.2       10 UNK        -0.4914 
     64 N          32.9210    2.1382   -7.4264 N.am      11 UNK        -0.4285 
     65 CA         33.6561    1.8774   -6.1781 C.3       11 UNK         0.1007 
     66 C          33.5097    3.0095   -5.1212 C.2       11 UNK         0.5703 
     67 N          32.6281    3.9859   -5.3060 N.am      11 UNK        -0.7361 
     68 O          34.2197    3.0083   -4.1185 O.2       11 UNK        -0.4986 
     69 C69        33.2941    0.4976   -5.5680 C.3       12 UNK        -0.0947 
     70 S70        33.5983   -0.8795   -6.7200 S.3       12 UNK        -0.2240 
     71 C71        33.7528   -2.2834   -5.5766 C.3       12 UNK         0.0194 
     72 H72        26.4807   -7.3869   -0.6963 H         1 UNK         0.0906 
     73 H73        25.1908   -6.8322   -1.7672 H         1 UNK         0.0906 
     74 H74        26.8702   -6.4250   -2.1235 H         1 UNK         0.0906 
     75 H75        27.2937   -4.2713   -1.6595 H         1 UNK         0.3140 
     76 H76        26.5335   -3.0527    0.8639 H         1 UNK         0.1085 
     77 H77        27.7820   -1.0436   -0.1047 H         1 UNK         0.0836 
     78 H78        28.7156   -2.4783    0.1207 H         1 UNK         0.0836 
     79 H79        30.7343   -2.1285   -1.5502 H         1 UNK         0.0731 
     80 H80        29.9819   -3.7071   -1.5514 H         1 UNK         0.0731 
     81 H81        32.3503   -1.7881   -3.2781 H         1 UNK         0.1312 
     82 H82        32.1683   -4.0289   -6.9312 H         1 UNK         0.1406 
     83 H83        29.1189   -4.5198   -3.9570 H         1 UNK         0.1631 
     84 H84        29.2637   -6.0839   -5.8219 H         1 UNK         0.0717 
     85 H85        30.6218   -6.0264   -6.9130 H         1 UNK         0.0717 
     86 H86        26.6509   -4.7308   -6.7318 H         1 UNK         0.0934 
     87 H87        27.7277   -3.8619   -5.6877 H         1 UNK         0.0934 
     88 H88        26.4618   -2.7964   -8.2580 H         1 UNK         0.0739 
     89 H89        25.9337   -1.0607   -6.2195 H         1 UNK         0.3093 
     90 H90        23.2439   -1.0230   -5.9479 H         1 UNK         0.0818 
     91 H91        21.9634   -1.8127   -3.9550 H         1 UNK         0.0819 
     92 H92        22.0238   -3.0429   -5.2051 H         1 UNK         0.0819 
     93 H93        23.0576   -3.1852   -3.7888 H         1 UNK         0.0819 
     94 H94        24.3228   -1.1207   -3.2819 H         1 UNK         0.3041 
     95 H95        26.6654    1.1122   -3.3070 H         1 UNK         0.0784 
     96 H96        25.6455    3.0469   -4.4036 H         1 UNK         0.0793 
     97 H97        24.1046    2.7565   -3.6140 H         1 UNK         0.0793 
     98 H98        25.5091    3.2478   -2.6669 H         1 UNK         0.0793 
     99 H99        25.9231    0.2765   -1.4399 H         1 UNK         0.3024 
    100 H100       23.8674    0.5408    0.6401 H         1 UNK         0.1171 
    101 H101       22.3372   -1.6935   -0.8003 H         1 UNK         0.0786 
    102 H102       21.6411   -0.2673   -0.0467 H         1 UNK         0.0786 
    103 H103       22.4123   -1.4884    0.9492 H         1 UNK         0.0786 
    104 H104       25.4757   -0.9579    0.9541 H         1 UNK         0.2977 
    105 H105       28.0520   -1.3321   -5.3800 H         1 UNK         0.3127 
    106 H106       30.3334   -0.3296   -6.5159 H         1 UNK         0.0770 
    107 H107       30.0013   -0.2764   -4.1085 H         1 UNK         0.0814 
    108 H108       28.6253    0.8127   -4.2514 H         1 UNK         0.0814 
    109 H109       30.2366    1.3854   -4.6167 H         1 UNK         0.0814 
    110 H110       27.1045    1.2182   -6.6965 H         1 UNK         0.2983 
    111 H111       28.0139    3.6928   -7.8123 H         1 UNK         0.0947 
    112 H112       25.5928    3.9727   -8.4064 H         1 UNK         0.0806 
    113 H113       25.7956    3.4594   -6.7412 H         1 UNK         0.0806 
    114 H114       25.2858    2.2979   -7.9642 H         1 UNK         0.0806 
    115 H115       27.3926    0.5416   -9.2678 H         1 UNK         0.3000 
    116 H116       27.4303    1.6035  -12.0363 H         1 UNK         0.0850 
    117 H117       26.9743   -0.7602  -12.6525 H         1 UNK         0.0810 
    118 H118       25.7897   -0.1841  -11.4912 H         1 UNK         0.0810 
    119 H119       27.0903   -1.2533  -10.9694 H         1 UNK         0.0810 
    120 H120       29.3201   -0.4690   -9.8128 H         1 UNK         0.3040 
    121 H121       31.4876   -0.9724  -11.6266 H         1 UNK         0.0766 
    122 H122       32.5516   -1.9308   -9.5646 H         1 UNK         0.0812 
    123 H123       30.9013   -2.4999   -9.7656 H         1 UNK         0.0812 
    124 H124       31.2620   -1.2488   -8.5824 H         1 UNK         0.0812 
    125 H125       30.7460    1.7652   -9.6902 H         1 UNK         0.3205 
    126 H126       31.6519    3.7271   -9.2940 H         1 UNK         0.0754 
    127 H127       33.4732    4.6582  -10.6567 H         1 UNK         0.0769 
    128 H128       32.3596    3.7852  -11.6968 H         1 UNK         0.0769 
    129 H129       33.9093    3.0674  -11.2583 H         1 UNK         0.0769 
    130 H130       31.9559    1.8231   -7.4603 H         1 UNK         0.2981 
    131 H131       34.7204    1.8433   -6.4185 H         1 UNK         0.0541 
    132 H132       32.0380    3.9941   -6.1222 H         1 UNK         0.3459 
    133 H133       32.5493    4.7165   -4.6165 H         1 UNK         0.3459 
    134 H134       32.2505    0.4668   -5.2652 H         1 UNK         0.0612 
    135 H135       33.8799    0.3230   -4.6639 H         1 UNK         0.0612 
    136 H136       34.3239   -3.0681   -6.0750 H         1 UNK         0.0624 
    137 H137       34.3433   -1.9938   -4.7063 H         1 UNK         0.0624 
@<TRIPOS>BOND
     1    1    2 1    
     2    1   72 1    
     3    1   73 1    
     4    1   74 1    
     5    2    3 2    
     6    2    4 am   BACKBONE|DICT|INTERRES
     7    4    5 1    
     8    4   75 1    
     9    5    6 1    
    10    5   35 1    
    11    5   76 1    
    12    6    7 1    
    13    6   77 1    
    14    6   78 1    
    15    7    8 1    
    16    8    9 1    
    17    8   79 1    
    18    8   80 1    
    19    9   10 ar   
    20    9   14 ar   
    21   10   11 ar   
    22   10   81 1    
    23   11   12 ar   
    24   11   71 1    
    25   12   13 ar   
    26   12   82 1    
    27   13   14 ar   
    28   13   15 1    
    29   14   83 1    
    30   15   16 1    
    31   15   84 1    
    32   15   85 1    
    33   16   17 1    
    34   17   18 1    
    35   17   86 1    
    36   17   87 1    
    37   18   19 1    
    38   18   37 1    
    39   18   88 1    
    40   19   20 am   BACKBONE|DICT|INTERRES
    41   19   89 1    
    42   20   21 2    
    43   20   22 1    
    44   22   23 1    
    45   22   24 1    
    46   22   90 1    
    47   23   91 1    
    48   23   92 1    
    49   23   93 1    
    50   24   25 am   BACKBONE|DICT|INTERRES
    51   24   94 1    
    52   25   26 2    
    53   25   27 1    
    54   27   28 1    
    55   27   29 1    
    56   27   95 1    
    57   28   96 1    
    58   28   97 1    
    59   28   98 1    
    60   29   30 am   BACKBONE|DICT|INTERRES
    61   29   99 1    
    62   30   31 2    
    63   30   32 1    
    64   32   33 1    
    65   32   34 1    
    66   32  100 1    
    67   33  101 1    
    68   33  102 1    
    69   33  103 1    
    70   34   35 am   BACKBONE|DICT|INTERRES
    71   34  104 1    
    72   35   36 2    
    73   37   38 2    
    74   37   39 am   BACKBONE|DICT|INTERRES
    75   39   40 1    
    76   39  105 1    
    77   40   41 1    
    78   40   42 1    
    79   40  106 1    
    80   41  107 1    
    81   41  108 1    
    82   41  109 1    
    83   42   43 2    
    84   42   44 am   BACKBONE|DICT|INTERRES
    85   44   45 1    
    86   44  110 1    
    87   45   46 1    
    88   45   47 1    
    89   45  111 1    
    90   46  112 1    
    91   46  113 1    
    92   46  114 1    
    93   47   48 2    
    94   47   49 am   BACKBONE|DICT|INTERRES
    95   49   50 1    
    96   49  115 1    
    97   50   51 1    
    98   50   52 1    
    99   50  116 1    
   100   51  117 1    
   101   51  118 1    
   102   51  119 1    
   103   52   53 2    
   104   52   54 am   BACKBONE|DICT|INTERRES
   105   54   55 1    
   106   54  120 1    
   107   55   56 1    
   108   55   57 1    
   109   55  121 1    
   110   56  122 1    
   111   56  123 1    
   112   56  124 1    
   113   57   58 2    
   114   57   59 am   BACKBONE|DICT|INTERRES
   115   59   60 1    
   116   59  125 1    
   117   60   61 1    
   118   60   62 1    
   119   60  126 1    
   120   61  127 1    
   121   61  128 1    
   122   61  129 1    
   123   62   63 2    
   124   62   64 am   BACKBONE|DICT|INTERRES
   125   64   65 1    
   126   64  130 1    
   127   65   66 1    
   128   65   69 1    
   129   65  131 1    
   130   66   67 am   BACKBONE|DICT|INTERRES
   131   66   68 2    
   132   67  132 1    
   133   67  133 1    
   134   69   70 1    
   135   69  134 1    
   136   69  135 1    
   137   70   71 1    
   138   71  136 1    
   139   71  137 1    
@<TRIPOS>SUBSTRUCTURE
     1 UNK         1 GROUP             0       ****    0 ROOT    
