@<TRIPOS>MOLECULE
3R137
137   139    1
SMALL
USER_CHARGES


@<TRIPOS>ATOM
      1 CA         25.1561   -6.6653   -2.9041 C.3       0 UNK        -0.2020 
      2 C          25.2847   -5.6016   -1.8250 C.2       0 UNK         0.4855 
      3 O          24.2746   -5.0655   -1.3678 O.2       0 UNK        -0.5197 
      4 N          26.5223   -5.2856   -1.4238 N.am      1 UNK        -0.4892 
      5 CA         26.8900   -4.2478   -0.4531 C.3       1 UNK         0.0835 
      6 C6         28.4165   -4.2338   -0.1433 C.3       12 UNK        -0.0855 
      7 S7         29.5109   -4.6864   -1.5436 S.3       12 UNK        -0.2931 
      8 C8         30.8570   -3.4669   -1.4230 C.3       12 UNK         0.0378 
      9 C9         30.6275   -2.2798   -2.3453 C.ar      12 UNK        -0.0802 
     10 C10        30.9583   -2.3765   -3.7006 C.ar      12 UNK        -0.0944 
     11 C11        30.7665   -1.2896   -4.5578 C.ar      12 UNK        -0.0787 
     12 C12        30.2687   -0.0905   -4.0439 C.ar      12 UNK        -0.0862 
     13 C13        29.9048    0.0120   -2.6975 C.ar      12 UNK        -0.0733 
     14 C14        30.0932   -1.0863   -1.8514 C.ar      12 UNK        -0.0832 
     15 C15        29.3041    1.2994   -2.1475 C.3       12 UNK         0.0240 
     16 S16        27.5283    1.1034   -1.7808 S.3       12 UNK        -0.2522 
     17 C17        26.7063    1.8640   -3.2228 C.3       12 UNK        -0.0967 
     18 CA         26.9680    1.1473   -4.5689 C.3       5 UNK         0.0660 
     19 N          26.6670   -0.2898   -4.5400 N.am      5 UNK        -0.4015 
     20 C          27.0105   -1.1684   -5.4963 C.2       4 UNK         0.4946 
     21 O          27.6259   -0.8525   -6.5146 O.2       4 UNK        -0.5353 
     22 CA         26.5363   -2.6220   -5.3408 C.3       4 UNK         0.0277 
     23 CB         27.6780   -3.5226   -4.8441 C.3       4 UNK        -0.1981 
     24 N          25.3763   -2.7370   -4.4531 N.am      4 UNK        -0.4209 
     25 C          24.1264   -2.3959   -4.8065 C.2       3 UNK         0.4942 
     26 O          23.8265   -1.9968   -5.9321 O.2       3 UNK        -0.5208 
     27 CA         23.0289   -2.4806   -3.7308 C.3       3 UNK         0.0250 
     28 CB         22.2635   -3.8089   -3.8369 C.3       3 UNK        -0.1990 
     29 N          23.5522   -2.3141   -2.3723 N.am      3 UNK        -0.4232 
     30 C          23.9441   -1.1335   -1.8678 C.2       2 UNK         0.4993 
     31 O          23.8310   -0.0673   -2.4721 O.2       2 UNK        -0.5286 
     32 CA         24.6075   -1.1362   -0.4772 C.3       2 UNK         0.0209 
     33 CB         23.5618   -0.8680    0.6168 C.3       2 UNK        -0.1931 
     34 N          25.3353   -2.3704   -0.1619 N.am      2 UNK        -0.4546 
     35 C          26.3513   -2.8682   -0.8818 C.2       1 UNK         0.5154 
     36 O          26.8009   -2.3200   -1.8866 O.2       1 UNK        -0.5181 
     37 C          26.3197    1.9102   -5.7447 C.2       5 UNK         0.5014 
     38 O          26.7593    3.0200   -6.0459 O.2       5 UNK        -0.5248 
     39 N          25.3522    1.2976   -6.4428 N.am      6 UNK        -0.4434 
     40 CA         24.8487    1.7596   -7.7391 C.3       6 UNK         0.0363 
     41 CB         23.6367    0.9027   -8.1377 C.3       6 UNK        -0.1936 
     42 C          25.9148    1.7366   -8.8570 C.2       6 UNK         0.5081 
     43 O          25.7708    2.4742   -9.8320 O.2       6 UNK        -0.5248 
     44 N          26.9601    0.9107   -8.6996 N.am      7 UNK        -0.4718 
     45 CA         28.0805    0.7614   -9.6294 C.3       7 UNK         0.0273 
     46 CB         28.1922   -0.7228  -10.0257 C.3       7 UNK        -0.1935 
     47 C          29.4041    1.2712   -9.0300 C.2       7 UNK         0.5018 
     48 O          30.4615    0.9305   -9.5633 O.2       7 UNK        -0.5186 
     49 N          29.3503    2.0790   -7.9561 N.am      8 UNK        -0.4240 
     50 CA         30.5007    2.5656   -7.1712 C.3       8 UNK         0.0235 
     51 CB         30.0044    3.4943   -6.0498 C.3       8 UNK        -0.2000 
     52 C          31.6234    3.2695   -7.9576 C.2       8 UNK         0.4941 
     53 O          32.7472    3.3424   -7.4598 O.2       8 UNK        -0.5273 
     54 N          31.3162    3.7612   -9.1647 N.am      9 UNK        -0.4262 
     55 CA         32.2756    4.3397  -10.1055 C.3       9 UNK         0.0264 
     56 CB         31.5039    5.0079  -11.2556 C.3       9 UNK        -0.1955 
     57 C          33.3013    3.3315  -10.6634 C.2       9 UNK         0.5031 
     58 O          34.3476    3.7717  -11.1438 O.2       9 UNK        -0.5390 
     59 N          33.0011    2.0239  -10.6143 N.am      10 UNK        -0.4204 
     60 CA         33.8723    0.9689  -11.1438 C.3       10 UNK         0.0237 
     61 CB         33.5380    0.7164  -12.6255 C.3       10 UNK        -0.1985 
     62 C          33.8204   -0.3449  -10.3489 C.2       10 UNK         0.4970 
     63 O          34.8350   -1.0416  -10.3051 O.2       10 UNK        -0.4914 
     64 N          32.6599   -0.6840   -9.7702 N.am      11 UNK        -0.4285 
     65 CA         32.3681   -1.9578   -9.0874 C.3       11 UNK         0.1007 
     66 C          32.4328   -3.2188  -10.0057 C.2       11 UNK         0.5703 
     67 N          32.3266   -3.0805  -11.3224 N.am      11 UNK        -0.7361 
     68 O          32.5433   -4.3440   -9.5242 O.2       11 UNK        -0.4986 
     69 C69        33.1448   -2.1324   -7.7481 C.3       12 UNK        -0.0947 
     70 S70        32.7133   -0.8754   -6.4988 S.3       12 UNK        -0.2240 
     71 C71        31.0407   -1.4306   -6.0466 C.3       12 UNK         0.0194 
     72 H72        26.0941   -7.1971   -3.0631 H         1 UNK         0.0906 
     73 H73        24.3978   -7.3959   -2.6238 H         1 UNK         0.0906 
     74 H74        24.8598   -6.2094   -3.8482 H         1 UNK         0.0906 
     75 H75        27.3176   -5.7308   -1.8621 H         1 UNK         0.3140 
     76 H76        26.3845   -4.5111    0.4787 H         1 UNK         0.1085 
     77 H77        28.6179   -4.9586    0.6470 H         1 UNK         0.0836 
     78 H78        28.7206   -3.2717    0.2735 H         1 UNK         0.0836 
     79 H79        31.7920   -3.9572   -1.6985 H         1 UNK         0.0731 
     80 H80        30.9862   -3.1411   -0.3899 H         1 UNK         0.0731 
     81 H81        31.3486   -3.3064   -4.0912 H         1 UNK         0.1312 
     82 H82        30.1450    0.7519   -4.7059 H         1 UNK         0.1406 
     83 H83        29.8122   -1.0121   -0.8099 H         1 UNK         0.1631 
     84 H84        29.4580    2.1335   -2.8336 H         1 UNK         0.0717 
     85 H85        29.8225    1.5661   -1.2255 H         1 UNK         0.0717 
     86 H86        25.6349    1.8935   -3.0164 H         1 UNK         0.0934 
     87 H87        27.0279    2.9063   -3.2760 H         1 UNK         0.0934 
     88 H88        28.0323    1.2189   -4.7656 H         1 UNK         0.0739 
     89 H89        26.2121   -0.6344   -3.7052 H         1 UNK         0.3093 
     90 H90        26.2433   -2.9757   -6.3318 H         1 UNK         0.0818 
     91 H91        28.0913   -3.1732   -3.8984 H         1 UNK         0.0819 
     92 H92        27.3484   -4.5524   -4.7079 H         1 UNK         0.0819 
     93 H93        28.4986   -3.5351   -5.5624 H         1 UNK         0.0819 
     94 H94        25.5761   -2.9639   -3.4860 H         1 UNK         0.3041 
     95 H95        22.3199   -1.6724   -3.9246 H         1 UNK         0.0784 
     96 H96        21.8079   -3.9165   -4.8222 H         1 UNK         0.0793 
     97 H97        22.9158   -4.6683   -3.6868 H         1 UNK         0.0793 
     98 H98        21.4609   -3.8647   -3.1014 H         1 UNK         0.0793 
     99 H99        23.6977   -3.1599   -1.8279 H         1 UNK         0.3024 
    100 H100       25.3304   -0.3186   -0.4660 H         1 UNK         0.1171 
    101 H101       22.8244   -1.6696    0.6761 H         1 UNK         0.0786 
    102 H102       23.0210    0.0589    0.4202 H         1 UNK         0.0786 
    103 H103       24.0287   -0.7657    1.5966 H         1 UNK         0.0786 
    104 H104       24.9898   -2.9051    0.6224 H         1 UNK         0.2977 
    105 H105       25.0397    0.3864   -6.1359 H         1 UNK         0.3127 
    106 H106       24.5176    2.7937   -7.6229 H         1 UNK         0.0770 
    107 H107       23.9063   -0.1483   -8.2518 H         1 UNK         0.0814 
    108 H108       23.2168    1.2372   -9.0874 H         1 UNK         0.0814 
    109 H109       22.8429    0.9655   -7.3932 H         1 UNK         0.0814 
    110 H110       27.0190    0.3342   -7.8618 H         1 UNK         0.2983 
    111 H111       27.9046    1.3428  -10.5366 H         1 UNK         0.0947 
    112 H112       28.9703   -0.8763  -10.7747 H         1 UNK         0.0806 
    113 H113       27.2591   -1.0894  -10.4533 H         1 UNK         0.0806 
    114 H114       28.4362   -1.3501   -9.1671 H         1 UNK         0.0806 
    115 H115       28.4347    2.3328   -7.6084 H         1 UNK         0.3000 
    116 H116       30.9608    1.6891   -6.7128 H         1 UNK         0.0850 
    117 H117       30.8375    3.8945   -5.4698 H         1 UNK         0.0810 
    118 H118       29.3585    2.9732   -5.3478 H         1 UNK         0.0810 
    119 H119       29.4478    4.3433   -6.4484 H         1 UNK         0.0810 
    120 H120       30.3653    3.6600   -9.4880 H         1 UNK         0.3040 
    121 H121       32.8370    5.1124   -9.5757 H         1 UNK         0.0766 
    122 H122       30.8335    5.7847  -10.8870 H         1 UNK         0.0812 
    123 H123       30.9085    4.2856  -11.8156 H         1 UNK         0.0812 
    124 H124       32.1878    5.4821  -11.9610 H         1 UNK         0.0812 
    125 H125       32.1217    1.7396  -10.1921 H         1 UNK         0.3205 
    126 H126       34.9101    1.3050  -11.0846 H         1 UNK         0.0754 
    127 H127       34.1604   -0.0782  -13.0399 H         1 UNK         0.0769 
    128 H128       33.7120    1.6083  -13.2278 H         1 UNK         0.0769 
    129 H129       32.4963    0.4219  -12.7580 H         1 UNK         0.0769 
    130 H130       31.8591   -0.0589   -9.8325 H         1 UNK         0.2981 
    131 H131       31.3096   -1.8937   -8.8345 H         1 UNK         0.0541 
    132 H132       32.2171   -2.1689  -11.7350 H         1 UNK         0.3459 
    133 H133       32.3574   -3.9005  -11.9073 H         1 UNK         0.3459 
    134 H134       32.9519   -3.1096   -7.3025 H         1 UNK         0.0612 
    135 H135       34.2211   -2.0949   -7.9192 H         1 UNK         0.0612 
    136 H136       30.3152   -0.8507   -6.6187 H         1 UNK         0.0624 
    137 H137       30.8914   -2.4698   -6.3425 H         1 UNK         0.0624 
@<TRIPOS>BOND
     1    1    2 1    
     2    1   72 1    
     3    1   73 1    
     4    1   74 1    
     5    2    3 2    
     6    2    4 am   BACKBONE|DICT|INTERRES
     7    4    5 1    
     8    4   75 1    
     9    5    6 1    
    10    5   35 1    
    11    5   76 1    
    12    6    7 1    
    13    6   77 1    
    14    6   78 1    
    15    7    8 1    
    16    8    9 1    
    17    8   79 1    
    18    8   80 1    
    19    9   10 ar   
    20    9   14 ar   
    21   10   11 ar   
    22   10   81 1    
    23   11   12 ar   
    24   11   71 1    
    25   12   13 ar   
    26   12   82 1    
    27   13   14 ar   
    28   13   15 1    
    29   14   83 1    
    30   15   16 1    
    31   15   84 1    
    32   15   85 1    
    33   16   17 1    
    34   17   18 1    
    35   17   86 1    
    36   17   87 1    
    37   18   19 1    
    38   18   37 1    
    39   18   88 1    
    40   19   20 am   BACKBONE|DICT|INTERRES
    41   19   89 1    
    42   20   21 2    
    43   20   22 1    
    44   22   23 1    
    45   22   24 1    
    46   22   90 1    
    47   23   91 1    
    48   23   92 1    
    49   23   93 1    
    50   24   25 am   BACKBONE|DICT|INTERRES
    51   24   94 1    
    52   25   26 2    
    53   25   27 1    
    54   27   28 1    
    55   27   29 1    
    56   27   95 1    
    57   28   96 1    
    58   28   97 1    
    59   28   98 1    
    60   29   30 am   BACKBONE|DICT|INTERRES
    61   29   99 1    
    62   30   31 2    
    63   30   32 1    
    64   32   33 1    
    65   32   34 1    
    66   32  100 1    
    67   33  101 1    
    68   33  102 1    
    69   33  103 1    
    70   34   35 am   BACKBONE|DICT|INTERRES
    71   34  104 1    
    72   35   36 2    
    73   37   38 2    
    74   37   39 am   BACKBONE|DICT|INTERRES
    75   39   40 1    
    76   39  105 1    
    77   40   41 1    
    78   40   42 1    
    79   40  106 1    
    80   41  107 1    
    81   41  108 1    
    82   41  109 1    
    83   42   43 2    
    84   42   44 am   BACKBONE|DICT|INTERRES
    85   44   45 1    
    86   44  110 1    
    87   45   46 1    
    88   45   47 1    
    89   45  111 1    
    90   46  112 1    
    91   46  113 1    
    92   46  114 1    
    93   47   48 2    
    94   47   49 am   BACKBONE|DICT|INTERRES
    95   49   50 1    
    96   49  115 1    
    97   50   51 1    
    98   50   52 1    
    99   50  116 1    
   100   51  117 1    
   101   51  118 1    
   102   51  119 1    
   103   52   53 2    
   104   52   54 am   BACKBONE|DICT|INTERRES
   105   54   55 1    
   106   54  120 1    
   107   55   56 1    
   108   55   57 1    
   109   55  121 1    
   110   56  122 1    
   111   56  123 1    
   112   56  124 1    
   113   57   58 2    
   114   57   59 am   BACKBONE|DICT|INTERRES
   115   59   60 1    
   116   59  125 1    
   117   60   61 1    
   118   60   62 1    
   119   60  126 1    
   120   61  127 1    
   121   61  128 1    
   122   61  129 1    
   123   62   63 2    
   124   62   64 am   BACKBONE|DICT|INTERRES
   125   64   65 1    
   126   64  130 1    
   127   65   66 1    
   128   65   69 1    
   129   65  131 1    
   130   66   67 am   BACKBONE|DICT|INTERRES
   131   66   68 2    
   132   67  132 1    
   133   67  133 1    
   134   69   70 1    
   135   69  134 1    
   136   69  135 1    
   137   70   71 1    
   138   71  136 1    
   139   71  137 1    
@<TRIPOS>SUBSTRUCTURE
     1 UNK         1 GROUP             0       ****    0 ROOT    
