@<TRIPOS>MOLECULE
3R137
137   139    1
SMALL
USER_CHARGES


@<TRIPOS>ATOM
      1 CA         25.0129   -6.1372   -4.8607 C.3       0 UNK        -0.2020 
      2 C          25.0886   -5.3705   -3.5497 C.2       0 UNK         0.4855 
      3 O          24.0553   -4.9312   -3.0448 O.2       0 UNK        -0.5197 
      4 N          26.3032   -5.2041   -3.0062 N.am      1 UNK        -0.4892 
      5 CA         26.6372   -4.5160   -1.7510 C.3       1 UNK         0.0835 
      6 C6         28.1694   -4.4203   -1.5442 C.3       12 UNK        -0.0855 
      7 S7         29.0719   -5.9934   -1.7268 S.3       12 UNK        -0.2931 
      8 C8         30.6835   -5.5536   -0.9918 C.3       12 UNK         0.0378 
      9 C9         31.2661   -4.2720   -1.5788 C.ar      12 UNK        -0.0802 
     10 C10        31.9477   -4.2948   -2.7993 C.ar      12 UNK        -0.0944 
     11 C11        32.4892   -3.1200   -3.3317 C.ar      12 UNK        -0.0787 
     12 C12        32.3463   -1.9172   -2.6306 C.ar      12 UNK        -0.0862 
     13 C13        31.6407   -1.8743   -1.4241 C.ar      12 UNK        -0.0733 
     14 C14        31.1184   -3.0591   -0.8973 C.ar      12 UNK        -0.0832 
     15 C15        31.4615   -0.5623   -0.6654 C.3       12 UNK         0.0240 
     16 S16        30.7719    0.7918   -1.6786 S.3       12 UNK        -0.2522 
     17 C17        29.1287    0.1588   -2.1670 C.3       12 UNK        -0.0967 
     18 CA         28.9067    0.3064   -3.6934 C.3       5 UNK         0.0660 
     19 N          27.9391   -0.6615   -4.2128 N.am      5 UNK        -0.4015 
     20 C          27.7190   -0.8707   -5.5180 C.2       4 UNK         0.4946 
     21 O          28.2800   -0.2355   -6.4081 O.2       4 UNK        -0.5353 
     22 CA         26.7442   -1.9848   -5.9116 C.3       4 UNK         0.0277 
     23 CB         27.4413   -3.3500   -5.7903 C.3       4 UNK        -0.1981 
     24 N          25.5220   -1.9717   -5.1021 N.am      4 UNK        -0.4209 
     25 C          24.3236   -1.5632   -5.5471 C.2       3 UNK         0.4942 
     26 O          24.1399   -1.1016   -6.6742 O.2       3 UNK        -0.5208 
     27 CA         23.1041   -1.7142   -4.6155 C.3       3 UNK         0.0250 
     28 CB         22.1609   -2.8087   -5.1441 C.3       3 UNK        -0.1990 
     29 N          23.4666   -2.0362   -3.2343 N.am      3 UNK        -0.4232 
     30 C          23.6821   -1.1264   -2.2734 C.2       2 UNK         0.4993 
     31 O          23.5206    0.0842   -2.4290 O.2       2 UNK        -0.5286 
     32 CA         24.1863   -1.6436   -0.9099 C.3       2 UNK         0.0209 
     33 CB         23.0142   -1.7983    0.0728 C.3       2 UNK        -0.1931 
     34 N          24.9294   -2.9091   -0.9787 N.am      2 UNK        -0.4546 
     35 C          26.0400   -3.0958   -1.7036 C.2       1 UNK         0.5154 
     36 O          26.5621   -2.2066   -2.3790 O.2       1 UNK        -0.5181 
     37 C          28.5161    1.7417   -4.1024 C.2       5 UNK         0.5014 
     38 O          27.3968    2.1718   -3.8132 O.2       5 UNK        -0.5248 
     39 N          29.4407    2.4287   -4.7876 N.am      6 UNK        -0.4434 
     40 CA         29.3028    3.7589   -5.3861 C.3       6 UNK         0.0363 
     41 CB         29.0379    4.8358   -4.3114 C.3       6 UNK        -0.1936 
     42 C          28.3066    3.8246   -6.5640 C.2       6 UNK         0.5081 
     43 O          27.8116    4.9112   -6.8676 O.2       6 UNK        -0.5248 
     44 N          28.0556    2.6958   -7.2489 N.am      7 UNK        -0.4718 
     45 CA         27.2332    2.6436   -8.4679 C.3       7 UNK         0.0273 
     46 CB         26.7421    1.2062   -8.7058 C.3       7 UNK        -0.1935 
     47 C          27.9512    3.1771   -9.7232 C.2       7 UNK         0.5018 
     48 O          27.3039    3.3298  -10.7600 O.2       7 UNK        -0.5186 
     49 N          29.2671    3.4224   -9.6286 N.am      8 UNK        -0.4240 
     50 CA         30.1880    3.9754  -10.6353 C.3       8 UNK         0.0235 
     51 CB         29.7318    5.3626  -11.1284 C.3       8 UNK        -0.2000 
     52 C          30.4923    3.0355  -11.8151 C.2       8 UNK         0.4941 
     53 O          31.6436    2.9800  -12.2484 O.2       8 UNK        -0.5273 
     54 N          29.4878    2.2863  -12.2895 N.am      9 UNK        -0.4262 
     55 CA         29.6315    1.2029  -13.2699 C.3       9 UNK         0.0264 
     56 CB         28.2375    0.7432  -13.7258 C.3       9 UNK        -0.1955 
     57 C          30.4428    0.0122  -12.7222 C.2       9 UNK         0.5031 
     58 O          31.1185   -0.6733  -13.4908 O.2       9 UNK        -0.5390 
     59 N          30.3786   -0.1834  -11.4024 N.am      10 UNK        -0.4204 
     60 CA         31.1939   -1.0829  -10.6004 C.3       10 UNK         0.0237 
     61 CB         30.5628   -2.4861  -10.5706 C.3       10 UNK        -0.1985 
     62 C          31.2594   -0.4744   -9.1952 C.2       10 UNK         0.4970 
     63 O          30.3501    0.2756   -8.8282 O.2       10 UNK        -0.4914 
     64 N          32.3197   -0.8078   -8.4470 N.am      11 UNK        -0.4285 
     65 CA         32.5255   -0.4411   -7.0324 C.3       11 UNK         0.1007 
     66 C          32.4376    1.0876   -6.7249 C.2       11 UNK         0.5703 
     67 N          32.8699    1.9528   -7.6344 N.am      11 UNK        -0.7361 
     68 O          31.9884    1.4992   -5.6569 O.2       11 UNK        -0.4986 
     69 C69        31.6565   -1.3095   -6.0804 C.3       12 UNK        -0.0947 
     70 S70        32.1286   -3.0700   -6.0942 S.3       12 UNK        -0.2240 
     71 C71        33.2439   -3.1582   -4.6546 C.3       12 UNK         0.0194 
     72 H72        24.6160   -5.4959   -5.6471 H         1 UNK         0.0906 
     73 H73        25.9896   -6.5016   -5.1786 H         1 UNK         0.0906 
     74 H74        24.3498   -6.9951   -4.7542 H         1 UNK         0.0906 
     75 H75        27.1028   -5.6134   -3.4692 H         1 UNK         0.3140 
     76 H76        26.2150   -5.1028   -0.9328 H         1 UNK         0.1085 
     77 H77        28.3788   -4.0159   -0.5521 H         1 UNK         0.0836 
     78 H78        28.6115   -3.7240   -2.2609 H         1 UNK         0.0836 
     79 H79        31.3804   -6.3786   -1.1473 H         1 UNK         0.0731 
     80 H80        30.5665   -5.4572    0.0889 H         1 UNK         0.0731 
     81 H81        32.0554   -5.2277   -3.3358 H         1 UNK         0.1312 
     82 H82        32.7736   -1.0065   -3.0272 H         1 UNK         0.1406 
     83 H83        30.5893   -3.0378    0.0457 H         1 UNK         0.1631 
     84 H84        32.4329   -0.2484   -0.2812 H         1 UNK         0.0717 
     85 H85        30.8189   -0.7010    0.2055 H         1 UNK         0.0717 
     86 H86        29.0632   -0.8922   -1.8814 H         1 UNK         0.0934 
     87 H87        28.3510    0.6692   -1.5954 H         1 UNK         0.0934 
     88 H88        29.8483    0.0603   -4.1860 H         1 UNK         0.0739 
     89 H89        27.4240   -1.2059   -3.5226 H         1 UNK         0.3093 
     90 H90        26.4985   -1.8391   -6.9660 H         1 UNK         0.0818 
     91 H91        28.3474   -3.3776   -6.3979 H         1 UNK         0.0819 
     92 H92        27.7369   -3.5657   -4.7636 H         1 UNK         0.0819 
     93 H93        26.7967   -4.1559   -6.1385 H         1 UNK         0.0819 
     94 H94        25.6162   -2.2503   -4.1322 H         1 UNK         0.3041 
     95 H95        22.5616   -0.7666   -4.6388 H         1 UNK         0.0784 
     96 H96        21.8280   -2.5833   -6.1582 H         1 UNK         0.0793 
     97 H97        22.6472   -3.7844   -5.1704 H         1 UNK         0.0793 
     98 H98        21.2687   -2.8961   -4.5240 H         1 UNK         0.0793 
     99 H99        23.6163   -3.0200   -3.0217 H         1 UNK         0.3024 
    100 H100       24.8676   -0.8854   -0.5172 H         1 UNK         0.1171 
    101 H101       23.3640   -2.0641    1.0706 H         1 UNK         0.0786 
    102 H102       22.4564   -0.8652    0.1656 H         1 UNK         0.0786 
    103 H103       22.3124   -2.5665   -0.2546 H         1 UNK         0.0786 
    104 H104       24.5231   -3.6992   -0.4976 H         1 UNK         0.2977 
    105 H105       30.3313    1.9735   -4.9854 H         1 UNK         0.3127 
    106 H106       30.2786    3.9774   -5.8223 H         1 UNK         0.0770 
    107 H107       28.0386    4.7466   -3.8847 H         1 UNK         0.0814 
    108 H108       29.1196    5.8381   -4.7336 H         1 UNK         0.0814 
    109 H109       29.7591    4.7699   -3.4968 H         1 UNK         0.0814 
    110 H110       28.4531    1.8143   -6.9351 H         1 UNK         0.2983 
    111 H111       26.3541    3.2737   -8.3158 H         1 UNK         0.0947 
    112 H112       26.0886    1.1519   -9.5775 H         1 UNK         0.0806 
    113 H113       26.1708    0.8361   -7.8542 H         1 UNK         0.0806 
    114 H114       27.5723    0.5204   -8.8784 H         1 UNK         0.0806 
    115 H115       29.6964    3.1751   -8.7478 H         1 UNK         0.3000 
    116 H116       31.1332    4.1164  -10.1082 H         1 UNK         0.0850 
    117 H117       30.4846    5.8093  -11.7792 H         1 UNK         0.0810 
    118 H118       29.5761    6.0478  -10.2950 H         1 UNK         0.0810 
    119 H119       28.8039    5.3111  -11.6985 H         1 UNK         0.0810 
    120 H120       28.5635    2.4510  -11.8986 H         1 UNK         0.3040 
    121 H121       30.1664    1.5988  -14.1358 H         1 UNK         0.0766 
    122 H122       27.6791    1.5616  -14.1808 H         1 UNK         0.0812 
    123 H123       27.6474    0.3559  -12.8940 H         1 UNK         0.0812 
    124 H124       28.3128   -0.0504  -14.4706 H         1 UNK         0.0812 
    125 H125       29.8247    0.4510  -10.8389 H         1 UNK         0.3205 
    126 H126       32.2019   -1.1312  -11.0180 H         1 UNK         0.0754 
    127 H127       30.4972   -2.9130  -11.5716 H         1 UNK         0.0769 
    128 H128       29.5568   -2.4646  -10.1489 H         1 UNK         0.0769 
    129 H129       31.1572   -3.1703   -9.9636 H         1 UNK         0.0769 
    130 H130       33.0223   -1.4148   -8.8428 H         1 UNK         0.2981 
    131 H131       33.5664   -0.6833   -6.8160 H         1 UNK         0.0541 
    132 H132       33.2449    1.6297   -8.5115 H         1 UNK         0.3459 
    133 H133       32.8360    2.9383   -7.4313 H         1 UNK         0.3459 
    134 H134       31.7144   -0.9487   -5.0569 H         1 UNK         0.0612 
    135 H135       30.6079   -1.2417   -6.3623 H         1 UNK         0.0612 
    136 H136       33.9706   -2.3459   -4.7067 H         1 UNK         0.0624 
    137 H137       33.8192   -4.0831   -4.7171 H         1 UNK         0.0624 
@<TRIPOS>BOND
     1    1    2 1    
     2    1   72 1    
     3    1   73 1    
     4    1   74 1    
     5    2    3 2    
     6    2    4 am   BACKBONE|DICT|INTERRES
     7    4    5 1    
     8    4   75 1    
     9    5    6 1    
    10    5   35 1    
    11    5   76 1    
    12    6    7 1    
    13    6   77 1    
    14    6   78 1    
    15    7    8 1    
    16    8    9 1    
    17    8   79 1    
    18    8   80 1    
    19    9   10 ar   
    20    9   14 ar   
    21   10   11 ar   
    22   10   81 1    
    23   11   12 ar   
    24   11   71 1    
    25   12   13 ar   
    26   12   82 1    
    27   13   14 ar   
    28   13   15 1    
    29   14   83 1    
    30   15   16 1    
    31   15   84 1    
    32   15   85 1    
    33   16   17 1    
    34   17   18 1    
    35   17   86 1    
    36   17   87 1    
    37   18   19 1    
    38   18   37 1    
    39   18   88 1    
    40   19   20 am   BACKBONE|DICT|INTERRES
    41   19   89 1    
    42   20   21 2    
    43   20   22 1    
    44   22   23 1    
    45   22   24 1    
    46   22   90 1    
    47   23   91 1    
    48   23   92 1    
    49   23   93 1    
    50   24   25 am   BACKBONE|DICT|INTERRES
    51   24   94 1    
    52   25   26 2    
    53   25   27 1    
    54   27   28 1    
    55   27   29 1    
    56   27   95 1    
    57   28   96 1    
    58   28   97 1    
    59   28   98 1    
    60   29   30 am   BACKBONE|DICT|INTERRES
    61   29   99 1    
    62   30   31 2    
    63   30   32 1    
    64   32   33 1    
    65   32   34 1    
    66   32  100 1    
    67   33  101 1    
    68   33  102 1    
    69   33  103 1    
    70   34   35 am   BACKBONE|DICT|INTERRES
    71   34  104 1    
    72   35   36 2    
    73   37   38 2    
    74   37   39 am   BACKBONE|DICT|INTERRES
    75   39   40 1    
    76   39  105 1    
    77   40   41 1    
    78   40   42 1    
    79   40  106 1    
    80   41  107 1    
    81   41  108 1    
    82   41  109 1    
    83   42   43 2    
    84   42   44 am   BACKBONE|DICT|INTERRES
    85   44   45 1    
    86   44  110 1    
    87   45   46 1    
    88   45   47 1    
    89   45  111 1    
    90   46  112 1    
    91   46  113 1    
    92   46  114 1    
    93   47   48 2    
    94   47   49 am   BACKBONE|DICT|INTERRES
    95   49   50 1    
    96   49  115 1    
    97   50   51 1    
    98   50   52 1    
    99   50  116 1    
   100   51  117 1    
   101   51  118 1    
   102   51  119 1    
   103   52   53 2    
   104   52   54 am   BACKBONE|DICT|INTERRES
   105   54   55 1    
   106   54  120 1    
   107   55   56 1    
   108   55   57 1    
   109   55  121 1    
   110   56  122 1    
   111   56  123 1    
   112   56  124 1    
   113   57   58 2    
   114   57   59 am   BACKBONE|DICT|INTERRES
   115   59   60 1    
   116   59  125 1    
   117   60   61 1    
   118   60   62 1    
   119   60  126 1    
   120   61  127 1    
   121   61  128 1    
   122   61  129 1    
   123   62   63 2    
   124   62   64 am   BACKBONE|DICT|INTERRES
   125   64   65 1    
   126   64  130 1    
   127   65   66 1    
   128   65   69 1    
   129   65  131 1    
   130   66   67 am   BACKBONE|DICT|INTERRES
   131   66   68 2    
   132   67  132 1    
   133   67  133 1    
   134   69   70 1    
   135   69  134 1    
   136   69  135 1    
   137   70   71 1    
   138   71  136 1    
   139   71  137 1    
@<TRIPOS>SUBSTRUCTURE
     1 UNK         1 GROUP             0       ****    0 ROOT    
