@<TRIPOS>MOLECULE
3R137
137   139    1
SMALL
USER_CHARGES


@<TRIPOS>ATOM
      1 CA         26.1154   -6.3279   -3.0454 C.3       0 UNK        -0.2020 
      2 C          26.0859   -5.6956   -1.6620 C.2       0 UNK         0.4855 
      3 O          25.4700   -6.2465   -0.7499 O.2       0 UNK        -0.5197 
      4 N          26.7433   -4.5393   -1.4990 N.am      1 UNK        -0.4892 
      5 CA         26.8148   -3.7879   -0.2377 C.3       1 UNK         0.0835 
      6 C6         28.1087   -2.9374   -0.1534 C.3       12 UNK        -0.0855 
      7 S7         28.2790   -1.6488   -1.4445 S.3       12 UNK        -0.2931 
      8 C8         30.0988   -1.5989   -1.6522 C.3       12 UNK         0.0378 
      9 C9         30.6093   -2.2708   -2.9283 C.ar      12 UNK        -0.0802 
     10 C10        31.7800   -1.7967   -3.5320 C.ar      12 UNK        -0.0944 
     11 C11        32.2845   -2.4018   -4.6878 C.ar      12 UNK        -0.0787 
     12 C12        31.5909   -3.4721   -5.2629 C.ar      12 UNK        -0.0862 
     13 C13        30.4259   -3.9641   -4.6678 C.ar      12 UNK        -0.0733 
     14 C14        29.9559   -3.3717   -3.4933 C.ar      12 UNK        -0.0832 
     15 C15        29.7036   -5.1695   -5.2575 C.3       12 UNK         0.0240 
     16 S16        28.6396   -4.7443   -6.6757 S.3       12 UNK        -0.2522 
     17 C17        27.3275   -3.7177   -5.9217 C.3       12 UNK        -0.0967 
     18 CA         26.9742   -2.4692   -6.7678 C.3       5 UNK         0.0660 
     19 N          25.7614   -1.8038   -6.2807 N.am      5 UNK        -0.4015 
     20 C          25.1081   -0.8352   -6.9405 C.2       4 UNK         0.4946 
     21 O          25.4229   -0.4331   -8.0602 O.2       4 UNK        -0.5353 
     22 CA         23.9313   -0.1688   -6.2075 C.3       4 UNK         0.0277 
     23 CB         22.6509   -1.0041   -6.3638 C.3       4 UNK        -0.1981 
     24 N          24.1875    0.0760   -4.7842 N.am      4 UNK        -0.4209 
     25 C          25.1855    0.8193   -4.2889 C.2       3 UNK         0.4942 
     26 O          26.0205    1.3800   -4.9967 O.2       3 UNK        -0.5208 
     27 CA         25.3113    0.9467   -2.7584 C.3       3 UNK         0.0250 
     28 CB         24.6454    2.2440   -2.2617 C.3       3 UNK        -0.1990 
     29 N          24.8608   -0.2209   -1.9818 N.am      3 UNK        -0.4232 
     30 C          23.6233   -0.7238   -1.8451 C.2       2 UNK         0.4993 
     31 O          22.6378   -0.2667   -2.4254 O.2       2 UNK        -0.5286 
     32 CA         23.4722   -1.9752   -0.9605 C.3       2 UNK         0.0209 
     33 CB         22.2897   -2.8585   -1.4034 C.3       2 UNK        -0.1931 
     34 N          24.6947   -2.7816   -0.9826 N.am      2 UNK        -0.4546 
     35 C          25.5489   -2.9441    0.0368 C.2       1 UNK         0.5154 
     36 O          25.3818   -2.4465    1.1514 O.2       1 UNK        -0.5181 
     37 C          28.1502   -1.4780   -6.8834 C.2       5 UNK         0.5014 
     38 O          28.8077   -1.4472   -7.9234 O.2       5 UNK        -0.5248 
     39 N          28.3530   -0.6501   -5.8464 N.am      6 UNK        -0.4434 
     40 CA         29.3781    0.3948   -5.8177 C.3       6 UNK         0.0363 
     41 CB         29.4235    1.0571   -4.4322 C.3       6 UNK        -0.1936 
     42 C          29.1710    1.4559   -6.9067 C.2       6 UNK         0.5081 
     43 O          30.1431    1.8645   -7.5384 O.2       6 UNK        -0.5248 
     44 N          27.9132    1.8599   -7.1271 N.am      7 UNK        -0.4718 
     45 CA         27.5126    2.7744   -8.1959 C.3       7 UNK         0.0273 
     46 CB         26.0428    3.1812   -8.0046 C.3       7 UNK        -0.1935 
     47 C          27.7454    2.1833   -9.5964 C.2       7 UNK         0.5018 
     48 O          28.3008    2.8725  -10.4522 O.2       7 UNK        -0.5186 
     49 N          27.3424    0.9200   -9.7988 N.am      8 UNK        -0.4240 
     50 CA         27.5045    0.1870  -11.0576 C.3       8 UNK         0.0235 
     51 CB         26.7071   -1.1261  -11.0008 C.3       8 UNK        -0.2000 
     52 C          28.9743   -0.0871  -11.4158 C.2       8 UNK         0.4941 
     53 O          29.3627    0.1179  -12.5665 O.2       8 UNK        -0.5273 
     54 N          29.7643   -0.5371  -10.4319 N.am      9 UNK        -0.4262 
     55 CA         31.1891   -0.8436  -10.5884 C.3       9 UNK         0.0264 
     56 CB         31.5955   -1.8671   -9.5166 C.3       9 UNK        -0.1955 
     57 C          32.1024    0.3974  -10.5436 C.2       9 UNK         0.5031 
     58 O          33.2830    0.2711  -10.8724 O.2       9 UNK        -0.5390 
     59 N          31.5547    1.5567  -10.1471 N.am      10 UNK        -0.4204 
     60 CA         32.2238    2.8502   -9.9584 C.3       10 UNK         0.0237 
     61 CB         32.7573    3.4058  -11.2964 C.3       10 UNK        -0.1985 
     62 C          33.2889    2.7999   -8.8449 C.2       10 UNK         0.4970 
     63 O          34.4110    3.2749   -9.0320 O.2       10 UNK        -0.4914 
     64 N          32.9050    2.2195   -7.7027 N.am      11 UNK        -0.4285 
     65 CA         33.7360    2.0764   -6.4967 C.3       11 UNK         0.1007 
     66 C          33.8094    3.3621   -5.6236 C.2       11 UNK         0.5703 
     67 N          32.9993    4.3854   -5.8709 N.am      11 UNK        -0.7361 
     68 O          34.6267    3.4365   -4.7091 O.2       11 UNK        -0.4986 
     69 C69        33.3070    0.8506   -5.6465 C.3       12 UNK        -0.0947 
     70 S70        33.3928   -0.7049   -6.5931 S.3       12 UNK        -0.2240 
     71 C71        33.6096   -1.9454   -5.2834 C.3       12 UNK         0.0194 
     72 H72        25.1048   -6.3972   -3.4482 H         1 UNK         0.0906 
     73 H73        26.7221   -5.7551   -3.7455 H         1 UNK         0.0906 
     74 H74        26.5284   -7.3352   -2.9879 H         1 UNK         0.0906 
     75 H75        27.2222   -4.1161   -2.2783 H         1 UNK         0.3140 
     76 H76        26.8622   -4.5129    0.5788 H         1 UNK         0.1085 
     77 H77        28.1821   -2.4540    0.8229 H         1 UNK         0.0836 
     78 H78        28.9666   -3.6097   -0.2072 H         1 UNK         0.0836 
     79 H79        30.4020   -0.5512   -1.6429 H         1 UNK         0.0731 
     80 H80        30.5922   -2.0533   -0.7923 H         1 UNK         0.0731 
     81 H81        32.3137   -0.9659   -3.0908 H         1 UNK         0.1312 
     82 H82        31.9726   -3.9400   -6.1603 H         1 UNK         0.1406 
     83 H83        29.0791   -3.7775   -3.0153 H         1 UNK         0.1631 
     84 H84        29.1056   -5.6725   -4.4965 H         1 UNK         0.0717 
     85 H85        30.4417   -5.9018   -5.5876 H         1 UNK         0.0717 
     86 H86        26.4453   -4.3522   -5.8227 H         1 UNK         0.0934 
     87 H87        27.6022   -3.4268   -4.9088 H         1 UNK         0.0934 
     88 H88        26.7517   -2.8136   -7.7805 H         1 UNK         0.0739 
     89 H89        25.4241   -2.0694   -5.3682 H         1 UNK         0.3093 
     90 H90        23.7642    0.8023   -6.6779 H         1 UNK         0.0818 
     91 H91        21.7889   -0.4907   -5.9372 H         1 UNK         0.0819 
     92 H92        22.4294   -1.1858   -7.4166 H         1 UNK         0.0819 
     93 H93        22.7368   -1.9755   -5.8753 H         1 UNK         0.0819 
     94 H94        23.5031   -0.2705   -4.1170 H         1 UNK         0.3041 
     95 H95        26.3797    1.0323   -2.5523 H         1 UNK         0.0784 
     96 H96        25.0625    3.1140   -2.7709 H         1 UNK         0.0793 
     97 H97        23.5704    2.2482   -2.4446 H         1 UNK         0.0793 
     98 H98        24.8049    2.3876   -1.1931 H         1 UNK         0.0793 
     99 H99        25.5991   -0.7039   -1.4877 H         1 UNK         0.3024 
    100 H100       23.2683   -1.6180    0.0516 H         1 UNK         0.1171 
    101 H101       22.3990   -3.1934   -2.4357 H         1 UNK         0.0786 
    102 H102       21.3452   -2.3170   -1.3329 H         1 UNK         0.0786 
    103 H103       22.1993   -3.7429   -0.7724 H         1 UNK         0.0786 
    104 H104       24.9221   -3.2321   -1.8572 H         1 UNK         0.2977 
    105 H105       27.7389   -0.7014   -5.0487 H         1 UNK         0.3127 
    106 H106       30.3369   -0.0933   -6.0028 H         1 UNK         0.0770 
    107 H107       29.6065    0.3245   -3.6511 H         1 UNK         0.0814 
    108 H108       28.4940    1.5728   -4.1931 H         1 UNK         0.0814 
    109 H109       30.2226    1.7970   -4.3783 H         1 UNK         0.0814 
    110 H110       27.1806    1.5209   -6.5078 H         1 UNK         0.2983 
    111 H111       28.1278    3.6729   -8.1105 H         1 UNK         0.0947 
    112 H112       25.7312    3.8909   -8.7720 H         1 UNK         0.0806 
    113 H113       25.8875    3.6589   -7.0370 H         1 UNK         0.0806 
    114 H114       25.3737    2.3224   -8.0622 H         1 UNK         0.0806 
    115 H115       26.8547    0.4353   -9.0490 H         1 UNK         0.3000 
    116 H116       27.0822    0.8035  -11.8540 H         1 UNK         0.0850 
    117 H117       26.8065   -1.6861  -11.9316 H         1 UNK         0.0810 
    118 H118       25.6444   -0.9370  -10.8478 H         1 UNK         0.0810 
    119 H119       27.0499   -1.7716  -10.1912 H         1 UNK         0.0810 
    120 H120       29.3575   -0.7299   -9.5160 H         1 UNK         0.3040 
    121 H121       31.3385   -1.3099  -11.5645 H         1 UNK         0.0766 
    122 H122       32.6567   -2.1109   -9.5800 H         1 UNK         0.0812 
    123 H123       31.0396   -2.7982   -9.6266 H         1 UNK         0.0812 
    124 H124       31.4050   -1.4874   -8.5133 H         1 UNK         0.0812 
    125 H125       30.5877    1.5298   -9.8494 H         1 UNK         0.3205 
    126 H126       31.4515    3.5362   -9.6067 H         1 UNK         0.0754 
    127 H127       33.1387    4.4200  -11.1723 H         1 UNK         0.0769 
    128 H128       31.9701    3.4458  -12.0494 H         1 UNK         0.0769 
    129 H129       33.5719    2.8000  -11.6941 H         1 UNK         0.0769 
    130 H130       31.9375    1.9113   -7.6228 H         1 UNK         0.2981 
    131 H131       34.7601    1.8920   -6.8268 H         1 UNK         0.0541 
    132 H132       32.3222    4.3314   -6.6144 H         1 UNK         0.3459 
    133 H133       33.0623    5.2144   -5.3015 H         1 UNK         0.3459 
    134 H134       32.2935    0.9773   -5.2685 H         1 UNK         0.0612 
    135 H135       33.9515    0.7559   -4.7710 H         1 UNK         0.0612 
    136 H136       34.1277   -2.8048   -5.7110 H         1 UNK         0.0624 
    137 H137       34.2689   -1.5591   -4.5050 H         1 UNK         0.0624 
@<TRIPOS>BOND
     1    1    2 1    
     2    1   72 1    
     3    1   73 1    
     4    1   74 1    
     5    2    3 2    
     6    2    4 am   BACKBONE|DICT|INTERRES
     7    4    5 1    
     8    4   75 1    
     9    5    6 1    
    10    5   35 1    
    11    5   76 1    
    12    6    7 1    
    13    6   77 1    
    14    6   78 1    
    15    7    8 1    
    16    8    9 1    
    17    8   79 1    
    18    8   80 1    
    19    9   10 ar   
    20    9   14 ar   
    21   10   11 ar   
    22   10   81 1    
    23   11   12 ar   
    24   11   71 1    
    25   12   13 ar   
    26   12   82 1    
    27   13   14 ar   
    28   13   15 1    
    29   14   83 1    
    30   15   16 1    
    31   15   84 1    
    32   15   85 1    
    33   16   17 1    
    34   17   18 1    
    35   17   86 1    
    36   17   87 1    
    37   18   19 1    
    38   18   37 1    
    39   18   88 1    
    40   19   20 am   BACKBONE|DICT|INTERRES
    41   19   89 1    
    42   20   21 2    
    43   20   22 1    
    44   22   23 1    
    45   22   24 1    
    46   22   90 1    
    47   23   91 1    
    48   23   92 1    
    49   23   93 1    
    50   24   25 am   BACKBONE|DICT|INTERRES
    51   24   94 1    
    52   25   26 2    
    53   25   27 1    
    54   27   28 1    
    55   27   29 1    
    56   27   95 1    
    57   28   96 1    
    58   28   97 1    
    59   28   98 1    
    60   29   30 am   BACKBONE|DICT|INTERRES
    61   29   99 1    
    62   30   31 2    
    63   30   32 1    
    64   32   33 1    
    65   32   34 1    
    66   32  100 1    
    67   33  101 1    
    68   33  102 1    
    69   33  103 1    
    70   34   35 am   BACKBONE|DICT|INTERRES
    71   34  104 1    
    72   35   36 2    
    73   37   38 2    
    74   37   39 am   BACKBONE|DICT|INTERRES
    75   39   40 1    
    76   39  105 1    
    77   40   41 1    
    78   40   42 1    
    79   40  106 1    
    80   41  107 1    
    81   41  108 1    
    82   41  109 1    
    83   42   43 2    
    84   42   44 am   BACKBONE|DICT|INTERRES
    85   44   45 1    
    86   44  110 1    
    87   45   46 1    
    88   45   47 1    
    89   45  111 1    
    90   46  112 1    
    91   46  113 1    
    92   46  114 1    
    93   47   48 2    
    94   47   49 am   BACKBONE|DICT|INTERRES
    95   49   50 1    
    96   49  115 1    
    97   50   51 1    
    98   50   52 1    
    99   50  116 1    
   100   51  117 1    
   101   51  118 1    
   102   51  119 1    
   103   52   53 2    
   104   52   54 am   BACKBONE|DICT|INTERRES
   105   54   55 1    
   106   54  120 1    
   107   55   56 1    
   108   55   57 1    
   109   55  121 1    
   110   56  122 1    
   111   56  123 1    
   112   56  124 1    
   113   57   58 2    
   114   57   59 am   BACKBONE|DICT|INTERRES
   115   59   60 1    
   116   59  125 1    
   117   60   61 1    
   118   60   62 1    
   119   60  126 1    
   120   61  127 1    
   121   61  128 1    
   122   61  129 1    
   123   62   63 2    
   124   62   64 am   BACKBONE|DICT|INTERRES
   125   64   65 1    
   126   64  130 1    
   127   65   66 1    
   128   65   69 1    
   129   65  131 1    
   130   66   67 am   BACKBONE|DICT|INTERRES
   131   66   68 2    
   132   67  132 1    
   133   67  133 1    
   134   69   70 1    
   135   69  134 1    
   136   69  135 1    
   137   70   71 1    
   138   71  136 1    
   139   71  137 1    
@<TRIPOS>SUBSTRUCTURE
     1 UNK         1 GROUP             0       ****    0 ROOT    
