@<TRIPOS>MOLECULE
3R137
137   139    1
SMALL
USER_CHARGES


@<TRIPOS>ATOM
      1 CA         25.0712   -4.9462   -3.1277 C.3       0 UNK        -0.2020 
      2 C          25.6431   -4.2207   -1.9199 C.2       0 UNK         0.4855 
      3 O          24.8795   -3.7100   -1.1021 O.2       0 UNK        -0.5197 
      4 N          26.9764   -4.1797   -1.7940 N.am      1 UNK        -0.4892 
      5 CA         27.6908   -3.6089   -0.6428 C.3       1 UNK         0.0835 
      6 C6         29.1911   -4.0036   -0.6078 C.3       12 UNK        -0.0855 
      7 S7         29.4473   -5.8056   -0.7693 S.3       12 UNK        -0.2931 
      8 C8         31.0279   -5.8984   -1.6822 C.3       12 UNK         0.0378 
      9 C9         31.0132   -5.1934   -3.0374 C.ar      12 UNK        -0.0802 
     10 C10        32.0831   -4.3646   -3.3964 C.ar      12 UNK        -0.0944 
     11 C11        32.0992   -3.7209   -4.6372 C.ar      12 UNK        -0.0787 
     12 C12        31.0337   -3.9039   -5.5191 C.ar      12 UNK        -0.0862 
     13 C13        29.9444   -4.7017   -5.1641 C.ar      12 UNK        -0.0733 
     14 C14        29.9512   -5.3672   -3.9341 C.ar      12 UNK        -0.0832 
     15 C15        28.7533   -4.8189   -6.1032 C.3       12 UNK         0.0240 
     16 S16        27.3479   -3.8101   -5.5301 S.3       12 UNK        -0.2522 
     17 C17        27.9884   -2.1042   -5.6435 C.3       12 UNK        -0.0967 
     18 CA         27.2629   -1.2611   -6.7157 C.3       5 UNK         0.0660 
     19 N          25.8162   -1.2165   -6.4937 N.am      5 UNK        -0.4015 
     20 C          24.9099   -0.5701   -7.2401 C.2       4 UNK         0.4946 
     21 O          25.1815    0.0246   -8.2847 O.2       4 UNK        -0.5353 
     22 CA         23.4761   -0.5127   -6.6768 C.3       4 UNK         0.0277 
     23 CB         22.6226   -1.6404   -7.2772 C.3       4 UNK        -0.1981 
     24 N          23.4123   -0.5752   -5.2062 N.am      4 UNK        -0.4209 
     25 C          24.0294    0.2786   -4.3728 C.2       3 UNK         0.4942 
     26 O          24.6893    1.2388   -4.7709 O.2       3 UNK        -0.5208 
     27 CA         23.9829   -0.0203   -2.8620 C.3       3 UNK         0.0250 
     28 CB         23.0296   -1.1694   -2.4753 C.3       3 UNK        -0.1990 
     29 N          25.3391   -0.3481   -2.4164 N.am      3 UNK        -0.4232 
     30 C          26.2728    0.5447   -2.0555 C.2       2 UNK         0.4993 
     31 O          26.0374    1.7365   -1.8513 O.2       2 UNK        -0.5286 
     32 CA         27.7229    0.0285   -1.9569 C.3       2 UNK         0.0209 
     33 CB         28.5917    0.8420   -0.9726 C.3       2 UNK        -0.1931 
     34 N          27.8233   -1.4183   -1.7100 N.am      2 UNK        -0.4546 
     35 C          27.5284   -2.0779   -0.5787 C.2       1 UNK         0.5154 
     36 O          27.1303   -1.5456    0.4579 O.2       1 UNK        -0.5181 
     37 C          27.9140    0.1348   -6.8055 C.2       5 UNK         0.5014 
     38 O          28.9088    0.2709   -7.5170 O.2       5 UNK        -0.5248 
     39 N          27.3479    1.1542   -6.1382 N.am      6 UNK        -0.4434 
     40 CA         27.8209    2.5406   -6.2202 C.3       6 UNK         0.0363 
     41 CB         27.1297    3.3893   -5.1423 C.3       6 UNK        -0.1936 
     42 C          27.6298    3.1729   -7.6127 C.2       6 UNK         0.5081 
     43 O          28.3416    4.1234   -7.9354 O.2       6 UNK        -0.5248 
     44 N          26.7001    2.6333   -8.4126 N.am      7 UNK        -0.4718 
     45 CA         26.5068    2.9922   -9.8158 C.3       7 UNK         0.0273 
     46 CB         25.0021    3.1181  -10.1079 C.3       7 UNK        -0.1935 
     47 C          27.1524    1.9502  -10.7413 C.2       7 UNK         0.5018 
     48 O          27.8167    2.3339  -11.7041 O.2       7 UNK        -0.5186 
     49 N          26.9311    0.6584  -10.4522 N.am      8 UNK        -0.4240 
     50 CA         27.3446   -0.4595  -11.3050 C.3       8 UNK         0.0235 
     51 CB         26.5841   -1.7308  -10.8935 C.3       8 UNK        -0.2000 
     52 C          28.8614   -0.7151  -11.3272 C.2       8 UNK         0.4941 
     53 O          29.3931   -1.0285  -12.3933 O.2       8 UNK        -0.5273 
     54 N          29.5235   -0.5948  -10.1691 N.am      9 UNK        -0.4262 
     55 CA         30.9675   -0.7951  -10.0098 C.3       9 UNK         0.0264 
     56 CB         31.2276   -1.8119   -8.8839 C.3       9 UNK        -0.1955 
     57 C          31.6831    0.5289   -9.7097 C.2       9 UNK         0.5031 
     58 O          32.7721    0.7532  -10.2390 O.2       9 UNK        -0.5390 
     59 N          31.0618    1.3711   -8.8690 N.am      10 UNK        -0.4204 
     60 CA         31.5408    2.6764   -8.3966 C.3       10 UNK         0.0237 
     61 CB         31.6153    3.6923   -9.5563 C.3       10 UNK        -0.1985 
     62 C          32.8441    2.5852   -7.5775 C.2       10 UNK         0.4970 
     63 O          33.6852    3.4828   -7.6516 O.2       10 UNK        -0.4914 
     64 N          32.9794    1.5025   -6.8011 N.am      11 UNK        -0.4285 
     65 CA         34.1182    1.2307   -5.9106 C.3       11 UNK         0.1007 
     66 C          34.1514    2.0718   -4.5997 C.2       11 UNK         0.5703 
     67 N          33.1090    2.8214   -4.2598 N.am      11 UNK        -0.7361 
     68 O          35.1517    2.0556   -3.8859 O.2       11 UNK        -0.4986 
     69 C69        34.2720   -0.2900   -5.6412 C.3       12 UNK        -0.0947 
     70 S70        32.7850   -1.0670   -4.9231 S.3       12 UNK        -0.2240 
     71 C71        33.2560   -2.8193   -5.0361 C.3       12 UNK         0.0194 
     72 H72        24.7015   -4.2297   -3.8602 H         1 UNK         0.0906 
     73 H73        25.8159   -5.5793   -3.6095 H         1 UNK         0.0906 
     74 H74        24.2399   -5.5824   -2.8249 H         1 UNK         0.0906 
     75 H75        27.5571   -4.6277   -2.4880 H         1 UNK         0.3140 
     76 H76        27.2242   -4.0159    0.2576 H         1 UNK         0.1085 
     77 H77        29.7403   -3.4892   -1.3978 H         1 UNK         0.0836 
     78 H78        29.6450   -3.6808    0.3312 H         1 UNK         0.0836 
     79 H79        31.8132   -5.4884   -1.0450 H         1 UNK         0.0731 
     80 H80        31.2787   -6.9481   -1.8401 H         1 UNK         0.0731 
     81 H81        32.9076   -4.2213   -2.7111 H         1 UNK         0.1312 
     82 H82        31.0430   -3.3982   -6.4738 H         1 UNK         0.1406 
     83 H83        29.1194   -6.0043   -3.6669 H         1 UNK         0.1631 
     84 H84        28.4394   -5.8618   -6.1650 H         1 UNK         0.0717 
     85 H85        29.0225   -4.5188   -7.1173 H         1 UNK         0.0717 
     86 H86        29.0583   -2.1247   -5.8495 H         1 UNK         0.0934 
     87 H87        27.8849   -1.6435   -4.6612 H         1 UNK         0.0934 
     88 H88        27.4203   -1.7434   -7.6809 H         1 UNK         0.0739 
     89 H89        25.4854   -1.7080   -5.6780 H         1 UNK         0.3093 
     90 H90        23.0490    0.4443   -6.9837 H         1 UNK         0.0818 
     91 H91        21.5804   -1.5577   -6.9684 H         1 UNK         0.0819 
     92 H92        22.6383   -1.6022   -8.3676 H         1 UNK         0.0819 
     93 H93        22.9850   -2.6256   -6.9808 H         1 UNK         0.0819 
     94 H94        22.8796   -1.3347   -4.8069 H         1 UNK         0.3041 
     95 H95        23.6395    0.8876   -2.3617 H         1 UNK         0.0784 
     96 H96        22.0035   -0.9509   -2.7744 H         1 UNK         0.0793 
     97 H97        23.3174   -2.1206   -2.9241 H         1 UNK         0.0793 
     98 H98        23.0190   -1.3145   -1.3945 H         1 UNK         0.0793 
     99 H99        25.6212   -1.3126   -2.5050 H         1 UNK         0.3024 
    100 H100       28.1466    0.1908   -2.9493 H         1 UNK         0.1171 
    101 H101       29.6104    0.4566   -0.9292 H         1 UNK         0.0786 
    102 H102       28.1832    0.8312    0.0380 H         1 UNK         0.0786 
    103 H103       28.6561    1.8862   -1.2811 H         1 UNK         0.0786 
    104 H104       28.1441   -1.9755   -2.4891 H         1 UNK         0.2977 
    105 H105       26.4872    1.0066   -5.6179 H         1 UNK         0.3127 
    106 H106       28.8923    2.5377   -6.0091 H         1 UNK         0.0770 
    107 H107       26.0560    3.4663   -5.3167 H         1 UNK         0.0814 
    108 H108       27.5295    4.4041   -5.1304 H         1 UNK         0.0814 
    109 H109       27.2785    2.9706   -4.1469 H         1 UNK         0.0814 
    110 H110       26.1634    1.8431   -8.0731 H         1 UNK         0.2983 
    111 H111       26.9710    3.9580  -10.0287 H         1 UNK         0.0947 
    112 H112       24.8285    3.3821  -11.1520 H         1 UNK         0.0806 
    113 H113       24.5463    3.8974   -9.4970 H         1 UNK         0.0806 
    114 H114       24.4683    2.1871   -9.9131 H         1 UNK         0.0806 
    115 H115       26.3324    0.4313   -9.6605 H         1 UNK         0.3000 
    116 H116       27.0464   -0.2157  -12.3273 H         1 UNK         0.0850 
    117 H117       26.8320   -2.5636  -11.5530 H         1 UNK         0.0810 
    118 H118       25.5054   -1.5833  -10.9500 H         1 UNK         0.0810 
    119 H119       26.8249   -2.0390   -9.8772 H         1 UNK         0.0810 
    120 H120       29.0176   -0.3047   -9.3388 H         1 UNK         0.3040 
    121 H121       31.4001   -1.1990  -10.9276 H         1 UNK         0.0766 
    122 H122       32.2961   -1.9982   -8.7669 H         1 UNK         0.0812 
    123 H123       30.8536   -1.4624   -7.9217 H         1 UNK         0.0812 
    124 H124       30.7533   -2.7693   -9.0998 H         1 UNK         0.0812 
    125 H125       30.2001    1.0431   -8.4328 H         1 UNK         0.3205 
    126 H126       30.7860    3.0377   -7.6987 H         1 UNK         0.0754 
    127 H127       31.8338    4.6943   -9.1853 H         1 UNK         0.0769 
    128 H128       30.6668    3.7476  -10.0914 H         1 UNK         0.0769 
    129 H129       32.3935    3.4337  -10.2749 H         1 UNK         0.0769 
    130 H130       32.2395    0.8168   -6.7819 H         1 UNK         0.2981 
    131 H131       35.0155    1.5338   -6.4537 H         1 UNK         0.0541 
    132 H132       32.2842    2.8421   -4.8358 H         1 UNK         0.3459 
    133 H133       33.1490    3.3651   -3.4124 H         1 UNK         0.3459 
    134 H134       35.1242   -0.4872   -4.9882 H         1 UNK         0.0612 
    135 H135       34.4967   -0.7959   -6.5816 H         1 UNK         0.0612 
    136 H136       33.5595   -3.0505   -6.0583 H         1 UNK         0.0624 
    137 H137       34.1257   -3.0006   -4.4026 H         1 UNK         0.0624 
@<TRIPOS>BOND
     1    1    2 1    
     2    1   72 1    
     3    1   73 1    
     4    1   74 1    
     5    2    3 2    
     6    2    4 am   BACKBONE|DICT|INTERRES
     7    4    5 1    
     8    4   75 1    
     9    5    6 1    
    10    5   35 1    
    11    5   76 1    
    12    6    7 1    
    13    6   77 1    
    14    6   78 1    
    15    7    8 1    
    16    8    9 1    
    17    8   79 1    
    18    8   80 1    
    19    9   10 ar   
    20    9   14 ar   
    21   10   11 ar   
    22   10   81 1    
    23   11   12 ar   
    24   11   71 1    
    25   12   13 ar   
    26   12   82 1    
    27   13   14 ar   
    28   13   15 1    
    29   14   83 1    
    30   15   16 1    
    31   15   84 1    
    32   15   85 1    
    33   16   17 1    
    34   17   18 1    
    35   17   86 1    
    36   17   87 1    
    37   18   19 1    
    38   18   37 1    
    39   18   88 1    
    40   19   20 am   BACKBONE|DICT|INTERRES
    41   19   89 1    
    42   20   21 2    
    43   20   22 1    
    44   22   23 1    
    45   22   24 1    
    46   22   90 1    
    47   23   91 1    
    48   23   92 1    
    49   23   93 1    
    50   24   25 am   BACKBONE|DICT|INTERRES
    51   24   94 1    
    52   25   26 2    
    53   25   27 1    
    54   27   28 1    
    55   27   29 1    
    56   27   95 1    
    57   28   96 1    
    58   28   97 1    
    59   28   98 1    
    60   29   30 am   BACKBONE|DICT|INTERRES
    61   29   99 1    
    62   30   31 2    
    63   30   32 1    
    64   32   33 1    
    65   32   34 1    
    66   32  100 1    
    67   33  101 1    
    68   33  102 1    
    69   33  103 1    
    70   34   35 am   BACKBONE|DICT|INTERRES
    71   34  104 1    
    72   35   36 2    
    73   37   38 2    
    74   37   39 am   BACKBONE|DICT|INTERRES
    75   39   40 1    
    76   39  105 1    
    77   40   41 1    
    78   40   42 1    
    79   40  106 1    
    80   41  107 1    
    81   41  108 1    
    82   41  109 1    
    83   42   43 2    
    84   42   44 am   BACKBONE|DICT|INTERRES
    85   44   45 1    
    86   44  110 1    
    87   45   46 1    
    88   45   47 1    
    89   45  111 1    
    90   46  112 1    
    91   46  113 1    
    92   46  114 1    
    93   47   48 2    
    94   47   49 am   BACKBONE|DICT|INTERRES
    95   49   50 1    
    96   49  115 1    
    97   50   51 1    
    98   50   52 1    
    99   50  116 1    
   100   51  117 1    
   101   51  118 1    
   102   51  119 1    
   103   52   53 2    
   104   52   54 am   BACKBONE|DICT|INTERRES
   105   54   55 1    
   106   54  120 1    
   107   55   56 1    
   108   55   57 1    
   109   55  121 1    
   110   56  122 1    
   111   56  123 1    
   112   56  124 1    
   113   57   58 2    
   114   57   59 am   BACKBONE|DICT|INTERRES
   115   59   60 1    
   116   59  125 1    
   117   60   61 1    
   118   60   62 1    
   119   60  126 1    
   120   61  127 1    
   121   61  128 1    
   122   61  129 1    
   123   62   63 2    
   124   62   64 am   BACKBONE|DICT|INTERRES
   125   64   65 1    
   126   64  130 1    
   127   65   66 1    
   128   65   69 1    
   129   65  131 1    
   130   66   67 am   BACKBONE|DICT|INTERRES
   131   66   68 2    
   132   67  132 1    
   133   67  133 1    
   134   69   70 1    
   135   69  134 1    
   136   69  135 1    
   137   70   71 1    
   138   71  136 1    
   139   71  137 1    
@<TRIPOS>SUBSTRUCTURE
     1 UNK         1 GROUP             0       ****    0 ROOT    
