@<TRIPOS>MOLECULE
3R137
137   139    1
SMALL
USER_CHARGES


@<TRIPOS>ATOM
      1 CA         27.4761   -7.7041   -5.5896 C.3       0 UNK        -0.2020 
      2 C          27.0019   -7.5623   -4.1511 C.2       0 UNK         0.4855 
      3 O          26.1889   -8.3639   -3.6907 O.2       0 UNK        -0.5197 
      4 N          27.5012   -6.5452   -3.4372 N.am      1 UNK        -0.4892 
      5 CA         27.1481   -6.2388   -2.0440 C.3       1 UNK         0.0835 
      6 C6         28.2298   -5.3558   -1.3719 C.3       12 UNK        -0.0855 
      7 S7         28.5314   -3.7650   -2.2219 S.3       12 UNK        -0.2931 
      8 C8         29.5169   -2.9213   -0.9515 C.3       12 UNK         0.0378 
      9 C9         30.1095   -1.6203   -1.4697 C.ar      12 UNK        -0.0802 
     10 C10        31.2578   -1.6483   -2.2665 C.ar      12 UNK        -0.0944 
     11 C11        31.8613   -0.4629   -2.6969 C.ar      12 UNK        -0.0787 
     12 C12        31.3095    0.7605   -2.2999 C.ar      12 UNK        -0.0862 
     13 C13        30.1485    0.8050   -1.5206 C.ar      12 UNK        -0.0733 
     14 C14        29.5492   -0.3903   -1.1125 C.ar      12 UNK        -0.0832 
     15 C15        29.5743    2.1416   -1.0685 C.3       12 UNK         0.0240 
     16 S16        28.2811    2.7619   -2.1912 S.3       12 UNK        -0.2522 
     17 C17        29.2656    3.2903   -3.6417 C.3       12 UNK        -0.0967 
     18 CA         28.8524    2.6028   -4.9687 C.3       5 UNK         0.0660 
     19 N          28.6552    1.1596   -4.8099 N.am      5 UNK        -0.4015 
     20 C          28.4484    0.2817   -5.7982 C.2       4 UNK         0.4946 
     21 O          28.5326    0.5717   -6.9916 O.2       4 UNK        -0.5353 
     22 CA         28.0281   -1.1464   -5.4012 C.3       4 UNK         0.0277 
     23 CB         29.2343   -2.0957   -5.4428 C.3       4 UNK        -0.1981 
     24 N          27.3678   -1.2755   -4.0944 N.am      4 UNK        -0.4209 
     25 C          26.2876   -0.5970   -3.6803 C.2       3 UNK         0.4942 
     26 O          25.7512    0.2976   -4.3340 O.2       3 UNK        -0.5208 
     27 CA         25.7197   -1.0059   -2.3105 C.3       3 UNK         0.0250 
     28 CB         24.6839    0.0002   -1.7655 C.3       3 UNK        -0.1990 
     29 N          25.1752   -2.3689   -2.3424 N.am      3 UNK        -0.4232 
     30 C          24.1786   -2.8415   -3.1101 C.2       2 UNK         0.4993 
     31 O          23.5013   -2.1473   -3.8694 O.2       2 UNK        -0.5286 
     32 CA         23.9167   -4.3579   -3.0311 C.3       2 UNK         0.0209 
     33 CB         23.0852   -4.8787   -4.2195 C.3       2 UNK        -0.1931 
     34 N          25.1822   -5.0929   -2.9864 N.am      2 UNK        -0.4546 
     35 C          25.7434   -5.6147   -1.8882 C.2       1 UNK         0.5154 
     36 O          25.2158   -5.5817   -0.7758 O.2       1 UNK        -0.5181 
     37 C          27.6548    3.3326   -5.6193 C.2       5 UNK         0.5014 
     38 O          27.8750    4.3693   -6.2467 O.2       5 UNK        -0.5248 
     39 N          26.4282    2.8002   -5.4903 N.am      6 UNK        -0.4434 
     40 CA         25.2320    3.3410   -6.1448 C.3       6 UNK         0.0363 
     41 CB         23.9677    2.7644   -5.4882 C.3       6 UNK        -0.1936 
     42 C          25.2286    3.0725   -7.6592 C.2       6 UNK         0.5081 
     43 O          24.7656    3.9205   -8.4225 O.2       6 UNK        -0.5248 
     44 N          25.7663    1.9143   -8.0687 N.am      7 UNK        -0.4718 
     45 CA         26.0271    1.5772   -9.4713 C.3       7 UNK         0.0273 
     46 CB         26.1204    0.0503   -9.6187 C.3       7 UNK        -0.1935 
     47 C          27.3084    2.2505   -9.9934 C.2       7 UNK         0.5018 
     48 O          27.4132    2.5055  -11.1937 O.2       7 UNK        -0.5186 
     49 N          28.2603    2.5057   -9.0838 N.am      8 UNK        -0.4240 
     50 CA         29.5697    3.1462   -9.2450 C.3       8 UNK         0.0235 
     51 CB         29.4568    4.5625   -9.8407 C.3       8 UNK        -0.2000 
     52 C          30.5728    2.2785  -10.0142 C.2       8 UNK         0.4941 
     53 O          31.6551    2.0088   -9.4947 O.2       8 UNK        -0.5273 
     54 N          30.1848    1.8138  -11.2082 N.am      9 UNK        -0.4262 
     55 CA         30.9734    0.9320  -12.0741 C.3       9 UNK         0.0264 
     56 CB         30.2646    0.7934  -13.4309 C.3       9 UNK        -0.1955 
     57 C          31.2456   -0.4552  -11.4636 C.2       9 UNK         0.5031 
     58 O          32.2491   -1.0781  -11.8123 O.2       9 UNK        -0.5390 
     59 N          30.3590   -0.9094  -10.5662 N.am      10 UNK        -0.4204 
     60 CA         30.5090   -2.1513   -9.8073 C.3       10 UNK         0.0237 
     61 CB         29.1544   -2.5442   -9.1958 C.3       10 UNK        -0.1985 
     62 C          31.5968   -2.0533   -8.7228 C.2       10 UNK         0.4970 
     63 O          32.3201   -3.0275   -8.5130 O.2       10 UNK        -0.4914 
     64 N          31.6915   -0.8935   -8.0576 N.am      11 UNK        -0.4285 
     65 CA         32.7373   -0.5897   -7.0715 C.3       11 UNK         0.1007 
     66 C          34.0705   -0.1755   -7.7560 C.2       11 UNK         0.5703 
     67 N          34.0405    0.6814   -8.7690 N.am      11 UNK        -0.7361 
     68 O          35.1378   -0.6557   -7.3816 O.2       11 UNK        -0.4986 
     69 C69        32.2265    0.4410   -6.0279 C.3       12 UNK        -0.0947 
     70 S70        33.4087    0.8343   -4.6946 S.3       12 UNK        -0.2240 
     71 C71        33.1465   -0.5414   -3.5211 C.3       12 UNK         0.0194 
     72 H72        28.1898   -6.9272   -5.8632 H         1 UNK         0.0906 
     73 H73        27.9573   -8.6714   -5.7319 H         1 UNK         0.0906 
     74 H74        26.6287   -7.6416   -6.2719 H         1 UNK         0.0906 
     75 H75        28.1737   -5.9168   -3.8557 H         1 UNK         0.3140 
     76 H76        27.1155   -7.1845   -1.4976 H         1 UNK         0.1085 
     77 H77        29.1733   -5.9033   -1.3386 H         1 UNK         0.0836 
     78 H78        27.9684   -5.1627   -0.3291 H         1 UNK         0.0836 
     79 H79        30.3236   -3.5788   -0.6231 H         1 UNK         0.0731 
     80 H80        28.8941   -2.7380   -0.0744 H         1 UNK         0.0731 
     81 H81        31.6917   -2.6015   -2.5374 H         1 UNK         0.1312 
     82 H82        31.7981    1.6817   -2.5814 H         1 UNK         0.1406 
     83 H83        28.6683   -0.3600   -0.4857 H         1 UNK         0.1631 
     84 H84        30.3657    2.8871   -0.9752 H         1 UNK         0.0717 
     85 H85        29.1455    2.0363   -0.0708 H         1 UNK         0.0717 
     86 H86        29.2036    4.3778   -3.7229 H         1 UNK         0.0934 
     87 H87        30.3205    3.0962   -3.4586 H         1 UNK         0.0934 
     88 H88        29.6842    2.7215   -5.6665 H         1 UNK         0.0739 
     89 H89        28.5675    0.8386   -3.8562 H         1 UNK         0.3093 
     90 H90        27.3093   -1.4777   -6.1532 H         1 UNK         0.0818 
     91 H91        28.9287   -3.1348   -5.3213 H         1 UNK         0.0819 
     92 H92        29.9544   -1.8639   -4.6600 H         1 UNK         0.0819 
     93 H93        29.7619   -2.0265   -6.3913 H         1 UNK         0.0819 
     94 H94        27.7406   -1.9933   -3.4844 H         1 UNK         0.3041 
     95 H95        26.5576   -1.0208   -1.6125 H         1 UNK         0.0784 
     96 H96        24.3307   -0.2905   -0.7763 H         1 UNK         0.0793 
     97 H97        25.1221    0.9952   -1.6754 H         1 UNK         0.0793 
     98 H98        23.8155    0.0890   -2.4191 H         1 UNK         0.0793 
     99 H99        25.6646   -3.0421   -1.7691 H         1 UNK         0.3024 
    100 H100       23.3426   -4.5329   -2.1181 H         1 UNK         0.1171 
    101 H101       22.9160   -5.9529   -4.1430 H         1 UNK         0.0786 
    102 H102       22.1053   -4.4006   -4.2528 H         1 UNK         0.0786 
    103 H103       23.5775   -4.6839   -5.1731 H         1 UNK         0.0786 
    104 H104       25.7072   -5.1432   -3.8479 H         1 UNK         0.2977 
    105 H105       26.3037    1.9337   -4.9676 H         1 UNK         0.3127 
    106 H106       25.2233    4.4233   -5.9978 H         1 UNK         0.0770 
    107 H107       23.8858    1.6877   -5.6415 H         1 UNK         0.0814 
    108 H108       23.0701    3.2207   -5.9073 H         1 UNK         0.0814 
    109 H109       23.9568    2.9507   -4.4142 H         1 UNK         0.0814 
    110 H110       26.1254    1.2781   -7.3704 H         1 UNK         0.2983 
    111 H111       25.1950    1.9309  -10.0846 H         1 UNK         0.0947 
    112 H112       26.3253   -0.2322  -10.6524 H         1 UNK         0.0806 
    113 H113       25.1860   -0.4319   -9.3314 H         1 UNK         0.0806 
    114 H114       26.9147   -0.3673   -9.0009 H         1 UNK         0.0806 
    115 H115       28.1067    2.1104   -8.1616 H         1 UNK         0.3000 
    116 H116       29.9639    3.2534   -8.2331 H         1 UNK         0.0850 
    117 H117       30.4306    5.0533   -9.8593 H         1 UNK         0.0810 
    118 H118       28.7908    5.1862   -9.2439 H         1 UNK         0.0810 
    119 H119       29.0802    4.5534  -10.8637 H         1 UNK         0.0810 
    120 H120       29.2535    2.0732  -11.5251 H         1 UNK         0.3040 
    121 H121       31.9416    1.4097  -12.2383 H         1 UNK         0.0766 
    122 H122       30.8379    0.1590  -14.1086 H         1 UNK         0.0812 
    123 H123       30.1473    1.7617  -13.9179 H         1 UNK         0.0812 
    124 H124       29.2743    0.3484  -13.3256 H         1 UNK         0.0812 
    125 H125       29.5578   -0.3334  -10.3562 H         1 UNK         0.3205 
    126 H126       30.8067   -2.9406  -10.5012 H         1 UNK         0.0754 
    127 H127       28.7733   -1.7721   -8.5280 H         1 UNK         0.0769 
    128 H128       29.2382   -3.4654   -8.6174 H         1 UNK         0.0769 
    129 H129       28.4056   -2.7160   -9.9694 H         1 UNK         0.0769 
    130 H130       31.0890   -0.1264   -8.3169 H         1 UNK         0.2981 
    131 H131       32.9445   -1.5088   -6.5200 H         1 UNK         0.0541 
    132 H132       34.9019    0.9411   -9.2208 H         1 UNK         0.3459 
    133 H133       33.1658    1.1147   -9.0591 H         1 UNK         0.3459 
    134 H134       31.3131    0.0734   -5.5629 H         1 UNK         0.0612 
    135 H135       31.9566    1.3752   -6.5236 H         1 UNK         0.0612 
    136 H136       33.9888   -0.5596   -2.8287 H         1 UNK         0.0624 
    137 H137       33.1847   -1.4808   -4.0743 H         1 UNK         0.0624 
@<TRIPOS>BOND
     1    1    2 1    
     2    1   72 1    
     3    1   73 1    
     4    1   74 1    
     5    2    3 2    
     6    2    4 am   BACKBONE|DICT|INTERRES
     7    4    5 1    
     8    4   75 1    
     9    5    6 1    
    10    5   35 1    
    11    5   76 1    
    12    6    7 1    
    13    6   77 1    
    14    6   78 1    
    15    7    8 1    
    16    8    9 1    
    17    8   79 1    
    18    8   80 1    
    19    9   10 ar   
    20    9   14 ar   
    21   10   11 ar   
    22   10   81 1    
    23   11   12 ar   
    24   11   71 1    
    25   12   13 ar   
    26   12   82 1    
    27   13   14 ar   
    28   13   15 1    
    29   14   83 1    
    30   15   16 1    
    31   15   84 1    
    32   15   85 1    
    33   16   17 1    
    34   17   18 1    
    35   17   86 1    
    36   17   87 1    
    37   18   19 1    
    38   18   37 1    
    39   18   88 1    
    40   19   20 am   BACKBONE|DICT|INTERRES
    41   19   89 1    
    42   20   21 2    
    43   20   22 1    
    44   22   23 1    
    45   22   24 1    
    46   22   90 1    
    47   23   91 1    
    48   23   92 1    
    49   23   93 1    
    50   24   25 am   BACKBONE|DICT|INTERRES
    51   24   94 1    
    52   25   26 2    
    53   25   27 1    
    54   27   28 1    
    55   27   29 1    
    56   27   95 1    
    57   28   96 1    
    58   28   97 1    
    59   28   98 1    
    60   29   30 am   BACKBONE|DICT|INTERRES
    61   29   99 1    
    62   30   31 2    
    63   30   32 1    
    64   32   33 1    
    65   32   34 1    
    66   32  100 1    
    67   33  101 1    
    68   33  102 1    
    69   33  103 1    
    70   34   35 am   BACKBONE|DICT|INTERRES
    71   34  104 1    
    72   35   36 2    
    73   37   38 2    
    74   37   39 am   BACKBONE|DICT|INTERRES
    75   39   40 1    
    76   39  105 1    
    77   40   41 1    
    78   40   42 1    
    79   40  106 1    
    80   41  107 1    
    81   41  108 1    
    82   41  109 1    
    83   42   43 2    
    84   42   44 am   BACKBONE|DICT|INTERRES
    85   44   45 1    
    86   44  110 1    
    87   45   46 1    
    88   45   47 1    
    89   45  111 1    
    90   46  112 1    
    91   46  113 1    
    92   46  114 1    
    93   47   48 2    
    94   47   49 am   BACKBONE|DICT|INTERRES
    95   49   50 1    
    96   49  115 1    
    97   50   51 1    
    98   50   52 1    
    99   50  116 1    
   100   51  117 1    
   101   51  118 1    
   102   51  119 1    
   103   52   53 2    
   104   52   54 am   BACKBONE|DICT|INTERRES
   105   54   55 1    
   106   54  120 1    
   107   55   56 1    
   108   55   57 1    
   109   55  121 1    
   110   56  122 1    
   111   56  123 1    
   112   56  124 1    
   113   57   58 2    
   114   57   59 am   BACKBONE|DICT|INTERRES
   115   59   60 1    
   116   59  125 1    
   117   60   61 1    
   118   60   62 1    
   119   60  126 1    
   120   61  127 1    
   121   61  128 1    
   122   61  129 1    
   123   62   63 2    
   124   62   64 am   BACKBONE|DICT|INTERRES
   125   64   65 1    
   126   64  130 1    
   127   65   66 1    
   128   65   69 1    
   129   65  131 1    
   130   66   67 am   BACKBONE|DICT|INTERRES
   131   66   68 2    
   132   67  132 1    
   133   67  133 1    
   134   69   70 1    
   135   69  134 1    
   136   69  135 1    
   137   70   71 1    
   138   71  136 1    
   139   71  137 1    
@<TRIPOS>SUBSTRUCTURE
     1 UNK         1 GROUP             0       ****    0 ROOT    
