@<TRIPOS>MOLECULE
3R137
137   139    1
SMALL
USER_CHARGES


@<TRIPOS>ATOM
      1 CA         27.1141   -7.0204    2.6671 C.3       0 UNK        -0.2020 
      2 C          27.2665   -5.5254    2.4287 C.2       0 UNK         0.4855 
      3 O          27.0271   -4.7329    3.3406 O.2       0 UNK        -0.5197 
      4 N          27.6709   -5.1342    1.2136 N.am      1 UNK        -0.4892 
      5 CA         27.7950   -3.7364    0.7874 C.3       1 UNK         0.0835 
      6 C6         28.7179   -3.6150   -0.4510 C.3       12 UNK        -0.0855 
      7 S7         29.4830   -1.9638   -0.5778 S.3       12 UNK        -0.2931 
      8 C8         28.6648   -1.2868   -2.0562 C.3       12 UNK         0.0378 
      9 C9         29.2279   -1.8847   -3.3367 C.ar      12 UNK        -0.0802 
     10 C10        30.4891   -1.4945   -3.7928 C.ar      12 UNK        -0.0944 
     11 C11        31.0018   -1.9983   -4.9916 C.ar      12 UNK        -0.0787 
     12 C12        30.2429   -2.9133   -5.7309 C.ar      12 UNK        -0.0862 
     13 C13        28.9855   -3.3295   -5.2765 C.ar      12 UNK        -0.0733 
     14 C14        28.4853   -2.8068   -4.0779 C.ar      12 UNK        -0.0832 
     15 C15        28.2070   -4.3930   -6.0471 C.3       12 UNK         0.0240 
     16 S16        26.4255   -4.0252   -6.2100 S.3       12 UNK        -0.2522 
     17 C17        26.2916   -3.3392   -7.8967 C.3       12 UNK        -0.0967 
     18 CA         26.1502   -1.7985   -7.9577 C.3       5 UNK         0.0660 
     19 N          25.1096   -1.2845   -7.0582 N.am      5 UNK        -0.4015 
     20 C          24.6569   -0.0227   -7.0200 C.2       4 UNK         0.4946 
     21 O          25.0464    0.8589   -7.7881 O.2       4 UNK        -0.5353 
     22 CA         23.6294    0.3419   -5.9324 C.3       4 UNK         0.0277 
     23 CB         22.2655    0.6539   -6.5706 C.3       4 UNK        -0.1981 
     24 N          23.4444   -0.6647   -4.8794 N.am      4 UNK        -0.4209 
     25 C          24.3564   -1.0267   -3.9657 C.2       3 UNK         0.4942 
     26 O          25.5239   -0.6286   -3.9588 O.2       3 UNK        -0.5208 
     27 CA         23.8740   -2.0504   -2.9219 C.3       3 UNK         0.0250 
     28 CB         24.1052   -3.4857   -3.4193 C.3       3 UNK        -0.1990 
     29 N          24.5094   -1.9023   -1.6123 N.am      3 UNK        -0.4232 
     30 C          24.4260   -0.8375   -0.8071 C.2       2 UNK         0.4993 
     31 O          23.8018    0.1850   -1.0949 O.2       2 UNK        -0.5286 
     32 CA         25.1241   -0.9128    0.5680 C.3       2 UNK         0.0209 
     33 CB         24.1038   -1.2607    1.6703 C.3       2 UNK        -0.1931 
     34 N          26.3103   -1.7838    0.6680 N.am      2 UNK        -0.4546 
     35 C          26.4039   -3.1152    0.5323 C.2       1 UNK         0.5154 
     36 O          25.4658   -3.8370    0.1840 O.2       1 UNK        -0.5181 
     37 C          27.5143   -1.0890   -7.8275 C.2       5 UNK         0.5014 
     38 O          28.3193   -1.1936   -8.7528 O.2       5 UNK        -0.5248 
     39 N          27.7307   -0.3235   -6.7472 N.am      6 UNK        -0.4434 
     40 CA         28.8543    0.6010   -6.5871 C.3       6 UNK         0.0363 
     41 CB         28.7294    1.3290   -5.2401 C.3       6 UNK        -0.1936 
     42 C          28.9656    1.6297   -7.7261 C.2       6 UNK         0.5081 
     43 O          30.0759    1.9249   -8.1674 O.2       6 UNK        -0.5248 
     44 N          27.8166    2.1258   -8.2102 N.am      7 UNK        -0.4718 
     45 CA         27.7355    3.0677   -9.3290 C.3       7 UNK         0.0273 
     46 CB         26.3407    3.7123   -9.3530 C.3       7 UNK        -0.1935 
     47 C          28.0518    2.4132  -10.6842 C.2       7 UNK         0.5018 
     48 O          28.5904    3.0853  -11.5637 O.2       7 UNK        -0.5186 
     49 N          27.7250    1.1207  -10.8252 N.am      8 UNK        -0.4240 
     50 CA         28.0423    0.3117  -12.0035 C.3       8 UNK         0.0235 
     51 CB         27.1264   -0.9228  -12.0524 C.3       8 UNK        -0.2000 
     52 C          29.5232   -0.0977  -12.0232 C.2       8 UNK         0.4941 
     53 O          30.1573   -0.0246  -13.0763 O.2       8 UNK        -0.5273 
     54 N          30.0482   -0.5024  -10.8577 N.am      9 UNK        -0.4262 
     55 CA         31.4540   -0.8497  -10.6444 C.3       9 UNK         0.0264 
     56 CB         31.6024   -1.5309   -9.2733 C.3       9 UNK        -0.1955 
     57 C          32.3995    0.3597  -10.7424 C.2       9 UNK         0.5031 
     58 O          33.5402    0.1908  -11.1753 O.2       9 UNK        -0.5390 
     59 N          31.9155    1.5392  -10.3212 N.am      10 UNK        -0.4204 
     60 CA         32.6383    2.8122  -10.2015 C.3       10 UNK         0.0237 
     61 CB         33.0809    3.3385  -11.5835 C.3       10 UNK        -0.1985 
     62 C          33.7880    2.7401   -9.1760 C.2       10 UNK         0.4970 
     63 O          34.8257    3.3794   -9.3607 O.2       10 UNK        -0.4914 
     64 N          33.5802    1.9456   -8.1200 N.am      11 UNK        -0.4285 
     65 CA         34.5127    1.7383   -7.0074 C.3       11 UNK         0.1007 
     66 C          34.5904    2.9513   -6.0372 C.2       11 UNK         0.5703 
     67 N          35.6404    3.0277   -5.2300 N.am      11 UNK        -0.7361 
     68 O          33.7120    3.8117   -5.9937 O.2       11 UNK        -0.4986 
     69 C69        34.2194    0.3990   -6.2774 C.3       12 UNK        -0.0947 
     70 S70        32.4959    0.2322   -5.7033 S.3       12 UNK        -0.2240 
     71 C71        32.3841   -1.5697   -5.4684 C.3       12 UNK         0.0194 
     72 H72        27.7604   -7.3380    3.4850 H         1 UNK         0.0906 
     73 H73        26.0842   -7.2537    2.9362 H         1 UNK         0.0906 
     74 H74        27.3740   -7.6037    1.7839 H         1 UNK         0.0906 
     75 H75        27.8138   -5.8278    0.4931 H         1 UNK         0.3140 
     76 H76        28.2555   -3.1932    1.6166 H         1 UNK         0.1085 
     77 H77        29.5430   -4.3249   -0.3715 H         1 UNK         0.0836 
     78 H78        28.1937   -3.8792   -1.3713 H         1 UNK         0.0836 
     79 H79        28.8120   -0.2061   -2.0718 H         1 UNK         0.0731 
     80 H80        27.5865   -1.4425   -1.9935 H         1 UNK         0.0731 
     81 H81        31.0697   -0.7864   -3.2173 H         1 UNK         0.1312 
     82 H82        30.6399   -3.3164   -6.6524 H         1 UNK         0.1406 
     83 H83        27.5141   -3.1180   -3.7202 H         1 UNK         0.1631 
     84 H84        28.3087   -5.3361   -5.5089 H         1 UNK         0.0717 
     85 H85        28.6445   -4.5607   -7.0320 H         1 UNK         0.0717 
     86 H86        27.1208   -3.6854   -8.5171 H         1 UNK         0.0934 
     87 H87        25.4040   -3.7876   -8.3458 H         1 UNK         0.0934 
     88 H88        25.8088   -1.5582   -8.9669 H         1 UNK         0.0739 
     89 H89        24.7631   -1.9392   -6.3727 H         1 UNK         0.3093 
     90 H90        23.9954    1.2517   -5.4520 H         1 UNK         0.0818 
     91 H91        21.5530    1.0175   -5.8298 H         1 UNK         0.0819 
     92 H92        22.3574    1.4293   -7.3328 H         1 UNK         0.0819 
     93 H93        21.8339   -0.2248   -7.0516 H         1 UNK         0.0819 
     94 H94        22.5210   -1.0702   -4.8167 H         1 UNK         0.3041 
     95 H95        22.8017   -1.9056   -2.7743 H         1 UNK         0.0784 
     96 H96        25.1676   -3.7161   -3.4972 H         1 UNK         0.0793 
     97 H97        23.6577   -4.2148   -2.7434 H         1 UNK         0.0793 
     98 H98        23.6615   -3.6441   -4.4031 H         1 UNK         0.0793 
     99 H99        24.9765   -2.7203   -1.2330 H         1 UNK         0.3024 
    100 H100       25.4870    0.0971    0.7680 H         1 UNK         0.1171 
    101 H101       23.2694   -0.5579    1.6666 H         1 UNK         0.0786 
    102 H102       24.5583   -1.2168    2.6601 H         1 UNK         0.0786 
    103 H103       23.6858   -2.2591    1.5372 H         1 UNK         0.0786 
    104 H104       27.1664   -1.2921    0.8894 H         1 UNK         0.2977 
    105 H105       27.0356   -0.3250   -6.0126 H         1 UNK         0.3127 
    106 H106       29.7640    0.0019   -6.5868 H         1 UNK         0.0770 
    107 H107       27.8562    1.9820   -5.2119 H         1 UNK         0.0814 
    108 H108       29.6090    1.9459   -5.0509 H         1 UNK         0.0814 
    109 H109       28.6416    0.6277   -4.4133 H         1 UNK         0.0814 
    110 H110       26.9361    1.7918   -7.8308 H         1 UNK         0.2983 
    111 H111       28.4736    3.8563   -9.1652 H         1 UNK         0.0947 
    112 H112       26.2642    4.4467  -10.1561 H         1 UNK         0.0806 
    113 H113       26.1271    4.2311   -8.4184 H         1 UNK         0.0806 
    114 H114       25.5556    2.9719   -9.5121 H         1 UNK         0.0806 
    115 H115       27.3174    0.6430  -10.0343 H         1 UNK         0.3000 
    116 H116       27.8486    0.9106  -12.8964 H         1 UNK         0.0850 
    117 H117       27.3164   -1.5094  -12.9522 H         1 UNK         0.0810 
    118 H118       26.0748   -0.6363  -12.0695 H         1 UNK         0.0810 
    119 H119       27.2810   -1.5826  -11.1984 H         1 UNK         0.0810 
    120 H120       29.4274   -0.6123  -10.0564 H         1 UNK         0.3040 
    121 H121       31.7463   -1.5637  -11.4173 H         1 UNK         0.0766 
    122 H122       32.6397   -1.8094   -9.0831 H         1 UNK         0.0812 
    123 H123       31.0049   -2.4409   -9.2167 H         1 UNK         0.0812 
    124 H124       31.2849   -0.8752   -8.4615 H         1 UNK         0.0812 
    125 H125       30.9948    1.5402   -9.8913 H         1 UNK         0.3205 
    126 H126       31.9198    3.5253   -9.7945 H         1 UNK         0.0754 
    127 H127       33.4839    4.3489  -11.5057 H         1 UNK         0.0769 
    128 H128       32.2415    3.3775  -12.2781 H         1 UNK         0.0769 
    129 H129       33.8560    2.7135  -12.0277 H         1 UNK         0.0769 
    130 H130       32.6724    1.5160   -8.0112 H         1 UNK         0.2981 
    131 H131       35.5069    1.6456   -7.4492 H         1 UNK         0.0541 
    132 H132       35.7080    3.8020   -4.5881 H         1 UNK         0.3459 
    133 H133       36.3669    2.3291   -5.2498 H         1 UNK         0.3459 
    134 H134       34.8887    0.2592   -5.4269 H         1 UNK         0.0612 
    135 H135       34.4308   -0.4266   -6.9588 H         1 UNK         0.0612 
    136 H136       32.6398   -2.0670   -6.4049 H         1 UNK         0.0624 
    137 H137       33.1275   -1.8821   -4.7338 H         1 UNK         0.0624 
@<TRIPOS>BOND
     1    1    2 1    
     2    1   72 1    
     3    1   73 1    
     4    1   74 1    
     5    2    3 2    
     6    2    4 am   BACKBONE|DICT|INTERRES
     7    4    5 1    
     8    4   75 1    
     9    5    6 1    
    10    5   35 1    
    11    5   76 1    
    12    6    7 1    
    13    6   77 1    
    14    6   78 1    
    15    7    8 1    
    16    8    9 1    
    17    8   79 1    
    18    8   80 1    
    19    9   10 ar   
    20    9   14 ar   
    21   10   11 ar   
    22   10   81 1    
    23   11   12 ar   
    24   11   71 1    
    25   12   13 ar   
    26   12   82 1    
    27   13   14 ar   
    28   13   15 1    
    29   14   83 1    
    30   15   16 1    
    31   15   84 1    
    32   15   85 1    
    33   16   17 1    
    34   17   18 1    
    35   17   86 1    
    36   17   87 1    
    37   18   19 1    
    38   18   37 1    
    39   18   88 1    
    40   19   20 am   BACKBONE|DICT|INTERRES
    41   19   89 1    
    42   20   21 2    
    43   20   22 1    
    44   22   23 1    
    45   22   24 1    
    46   22   90 1    
    47   23   91 1    
    48   23   92 1    
    49   23   93 1    
    50   24   25 am   BACKBONE|DICT|INTERRES
    51   24   94 1    
    52   25   26 2    
    53   25   27 1    
    54   27   28 1    
    55   27   29 1    
    56   27   95 1    
    57   28   96 1    
    58   28   97 1    
    59   28   98 1    
    60   29   30 am   BACKBONE|DICT|INTERRES
    61   29   99 1    
    62   30   31 2    
    63   30   32 1    
    64   32   33 1    
    65   32   34 1    
    66   32  100 1    
    67   33  101 1    
    68   33  102 1    
    69   33  103 1    
    70   34   35 am   BACKBONE|DICT|INTERRES
    71   34  104 1    
    72   35   36 2    
    73   37   38 2    
    74   37   39 am   BACKBONE|DICT|INTERRES
    75   39   40 1    
    76   39  105 1    
    77   40   41 1    
    78   40   42 1    
    79   40  106 1    
    80   41  107 1    
    81   41  108 1    
    82   41  109 1    
    83   42   43 2    
    84   42   44 am   BACKBONE|DICT|INTERRES
    85   44   45 1    
    86   44  110 1    
    87   45   46 1    
    88   45   47 1    
    89   45  111 1    
    90   46  112 1    
    91   46  113 1    
    92   46  114 1    
    93   47   48 2    
    94   47   49 am   BACKBONE|DICT|INTERRES
    95   49   50 1    
    96   49  115 1    
    97   50   51 1    
    98   50   52 1    
    99   50  116 1    
   100   51  117 1    
   101   51  118 1    
   102   51  119 1    
   103   52   53 2    
   104   52   54 am   BACKBONE|DICT|INTERRES
   105   54   55 1    
   106   54  120 1    
   107   55   56 1    
   108   55   57 1    
   109   55  121 1    
   110   56  122 1    
   111   56  123 1    
   112   56  124 1    
   113   57   58 2    
   114   57   59 am   BACKBONE|DICT|INTERRES
   115   59   60 1    
   116   59  125 1    
   117   60   61 1    
   118   60   62 1    
   119   60  126 1    
   120   61  127 1    
   121   61  128 1    
   122   61  129 1    
   123   62   63 2    
   124   62   64 am   BACKBONE|DICT|INTERRES
   125   64   65 1    
   126   64  130 1    
   127   65   66 1    
   128   65   69 1    
   129   65  131 1    
   130   66   67 am   BACKBONE|DICT|INTERRES
   131   66   68 2    
   132   67  132 1    
   133   67  133 1    
   134   69   70 1    
   135   69  134 1    
   136   69  135 1    
   137   70   71 1    
   138   71  136 1    
   139   71  137 1    
@<TRIPOS>SUBSTRUCTURE
     1 UNK         1 GROUP             0       ****    0 ROOT    
