@<TRIPOS>MOLECULE
3R137
137   139    1
SMALL
USER_CHARGES


@<TRIPOS>ATOM
      1 CA         24.4115   -2.7362    1.1448 C.3       0 UNK        -0.2020 
      2 C          25.7217   -2.1701    0.6202 C.2       0 UNK         0.4855 
      3 O          25.8374   -0.9609    0.4138 O.2       0 UNK        -0.5197 
      4 N          26.7146   -3.0419    0.4106 N.am      1 UNK        -0.4892 
      5 CA         28.0409   -2.6907   -0.1037 C.3       1 UNK         0.0835 
      6 C6         29.0919   -3.7942    0.1845 C.3       12 UNK        -0.0855 
      7 S7         28.6267   -5.4643   -0.3912 S.3       12 UNK        -0.2931 
      8 C8         30.0751   -5.9396   -1.3922 C.3       12 UNK         0.0378 
      9 C9         30.0051   -5.4129   -2.8200 C.ar      12 UNK        -0.0802 
     10 C10        30.9881   -4.5501   -3.3178 C.ar      12 UNK        -0.0944 
     11 C11        30.9633   -4.1333   -4.6551 C.ar      12 UNK        -0.0787 
     12 C12        29.9343   -4.5851   -5.4909 C.ar      12 UNK        -0.0862 
     13 C13        28.9366   -5.4295   -4.9991 C.ar      12 UNK        -0.0733 
     14 C14        28.9812   -5.8446   -3.6667 C.ar      12 UNK        -0.0832 
     15 C15        27.8167   -5.9135   -5.9049 C.3       12 UNK         0.0240 
     16 S16        26.2778   -4.9983   -5.5953 S.3       12 UNK        -0.2522 
     17 C17        26.5954   -3.4411   -6.4883 C.3       12 UNK        -0.0967 
     18 CA         25.3334   -2.5484   -6.4769 C.3       5 UNK         0.0660 
     19 N          25.0324   -2.0282   -5.1402 N.am      5 UNK        -0.4015 
     20 C          23.8289   -1.5757   -4.7621 C.2       4 UNK         0.4946 
     21 O          22.8262   -1.6023   -5.4774 O.2       4 UNK        -0.5353 
     22 CA         23.7237   -0.9830   -3.3491 C.3       4 UNK         0.0277 
     23 CB         23.4906   -2.0890   -2.3096 C.3       4 UNK        -0.1981 
     24 N          24.9052   -0.1949   -2.9903 N.am      4 UNK        -0.4209 
     25 C          25.1640    1.0238   -3.4888 C.2       3 UNK         0.4942 
     26 O          24.4008    1.6315   -4.2398 O.2       3 UNK        -0.5208 
     27 CA         26.4991    1.6813   -3.0999 C.3       3 UNK         0.0250 
     28 CB         26.3231    2.5586   -1.8504 C.3       3 UNK        -0.1990 
     29 N          27.5848    0.7265   -2.8702 N.am      3 UNK        -0.4232 
     30 C          28.1190   -0.0709   -3.8060 C.2       2 UNK         0.4993 
     31 O          27.7441   -0.1031   -4.9770 O.2       2 UNK        -0.5286 
     32 CA         29.2434   -1.0113   -3.3471 C.3       2 UNK         0.0209 
     33 CB         30.5928   -0.2818   -3.4006 C.3       2 UNK        -0.1931 
     34 N          29.0533   -1.5390   -1.9952 N.am      2 UNK        -0.4546 
     35 C          28.0095   -2.2738   -1.5893 C.2       1 UNK         0.5154 
     36 O          27.0644   -2.5869   -2.3202 O.2       1 UNK        -0.5181 
     37 C          25.4205   -1.4169   -7.5189 C.2       5 UNK         0.5014 
     38 O          24.9475   -1.6035   -8.6403 O.2       5 UNK        -0.5248 
     39 N          26.0108   -0.2727   -7.1401 N.am      6 UNK        -0.4434 
     40 CA         26.1097    1.0054   -7.8628 C.3       6 UNK         0.0363 
     41 CB         24.7116    1.5911   -8.1376 C.3       6 UNK        -0.1936 
     42 C          26.9663    1.0002   -9.1445 C.2       6 UNK         0.5081 
     43 O          27.4100    2.0731   -9.5589 O.2       6 UNK        -0.5248 
     44 N          27.2074   -0.1749   -9.7389 N.am      7 UNK        -0.4718 
     45 CA         28.0234   -0.4030  -10.9345 C.3       7 UNK         0.0273 
     46 CB         28.0945   -1.9142  -11.2047 C.3       7 UNK        -0.1935 
     47 C          29.4404    0.1834  -10.8167 C.2       7 UNK         0.5018 
     48 O          30.0388    0.1169   -9.7404 O.2       7 UNK        -0.5186 
     49 N          29.9350    0.7538  -11.9252 N.am      8 UNK        -0.4240 
     50 CA         31.2168    1.4623  -12.0500 C.3       8 UNK         0.0235 
     51 CB         32.3998    0.4774  -11.9230 C.3       8 UNK        -0.2000 
     52 C          31.3324    2.6643  -11.0890 C.2       8 UNK         0.4941 
     53 O          32.3977    2.8826  -10.5114 O.2       8 UNK        -0.5273 
     54 N          30.2224    3.4029  -10.9203 N.am      9 UNK        -0.4262 
     55 CA         30.0433    4.5334   -9.9978 C.3       9 UNK         0.0264 
     56 CB         30.8688    5.7534  -10.4606 C.3       9 UNK        -0.1955 
     57 C          30.3225    4.1316   -8.5357 C.2       9 UNK         0.5031 
     58 O          31.1224    4.7784   -7.8565 O.2       9 UNK        -0.5390 
     59 N          29.6653    3.0446   -8.1069 N.am      10 UNK        -0.4204 
     60 CA         29.8397    2.3355   -6.8361 C.3       10 UNK         0.0237 
     61 CB         29.3658    3.1962   -5.6452 C.3       10 UNK        -0.1985 
     62 C          31.2716    1.7920   -6.6715 C.2       10 UNK         0.4970 
     63 O          31.9610    2.1423   -5.7114 O.2       10 UNK        -0.4914 
     64 N          31.6701    0.9231   -7.6095 N.am      11 UNK        -0.4285 
     65 CA         32.9207    0.1462   -7.6003 C.3       11 UNK         0.1007 
     66 C          34.2142    1.0101   -7.7017 C.2       11 UNK         0.5703 
     67 N          34.2078    2.1119   -8.4405 N.am      11 UNK        -0.7361 
     68 O          35.2473    0.6771   -7.1241 O.2       11 UNK        -0.4986 
     69 C69        32.9729   -0.8955   -6.4426 C.3       12 UNK        -0.0947 
     70 S70        31.5130   -1.9874   -6.3885 S.3       12 UNK        -0.2240 
     71 C71        32.0802   -3.2363   -5.1863 C.3       12 UNK         0.0194 
     72 H72        24.0776   -3.5726    0.5309 H         1 UNK         0.0906 
     73 H73        24.5320   -3.0842    2.1703 H         1 UNK         0.0906 
     74 H74        23.6305   -1.9762    1.1357 H         1 UNK         0.0906 
     75 H75        26.5576   -4.0309    0.5478 H         1 UNK         0.3140 
     76 H76        28.3576   -1.8035    0.4504 H         1 UNK         0.1085 
     77 H77        30.0644   -3.5162   -0.2257 H         1 UNK         0.0836 
     78 H78        29.2484   -3.8602    1.2624 H         1 UNK         0.0836 
     79 H79        30.1228   -7.0288   -1.4303 H         1 UNK         0.0731 
     80 H80        30.9914   -5.6181   -0.8946 H         1 UNK         0.0731 
     81 H81        31.7896   -4.2228   -2.6697 H         1 UNK         0.1312 
     82 H82        29.9082   -4.2826   -6.5286 H         1 UNK         0.1406 
     83 H83        28.2166   -6.5089   -3.2866 H         1 UNK         0.1631 
     84 H84        27.6372   -6.9741   -5.7229 H         1 UNK         0.0717 
     85 H85        28.0957   -5.8284   -6.9564 H         1 UNK         0.0717 
     86 H86        27.4470   -2.9258   -6.0388 H         1 UNK         0.0934 
     87 H87        26.8847   -3.6922   -7.5110 H         1 UNK         0.0934 
     88 H88        24.4898   -3.1714   -6.7841 H         1 UNK         0.0739 
     89 H89        25.7958   -2.0023   -4.4777 H         1 UNK         0.3093 
     90 H90        22.8534   -0.3229   -3.3336 H         1 UNK         0.0818 
     91 H91        24.3451   -2.7621   -2.2311 H         1 UNK         0.0819 
     92 H92        23.3007   -1.6625   -1.3256 H         1 UNK         0.0819 
     93 H93        22.6215   -2.6942   -2.5712 H         1 UNK         0.0819 
     94 H94        25.5835   -0.6315   -2.3792 H         1 UNK         0.3041 
     95 H95        26.7966    2.3248   -3.9306 H         1 UNK         0.0784 
     96 H96        25.5333    3.2963   -1.9996 H         1 UNK         0.0793 
     97 H97        26.0539    1.9648   -0.9754 H         1 UNK         0.0793 
     98 H98        27.2361    3.1072   -1.6180 H         1 UNK         0.0793 
     99 H99        27.9495    0.6703   -1.9304 H         1 UNK         0.3024 
    100 H100       29.2673   -1.8567   -4.0385 H         1 UNK         0.1171 
    101 H101       30.7802    0.1016   -4.4016 H         1 UNK         0.0786 
    102 H102       31.4182   -0.9480   -3.1515 H         1 UNK         0.0786 
    103 H103       30.6274    0.5679   -2.7178 H         1 UNK         0.0786 
    104 H104       29.7851   -1.3291   -1.3317 H         1 UNK         0.2977 
    105 H105       26.4857   -0.2667   -6.2365 H         1 UNK         0.3127 
    106 H106       26.6135    1.6825   -7.1710 H         1 UNK         0.0770 
    107 H107       24.1431    0.9774   -8.8369 H         1 UNK         0.0814 
    108 H108       24.7854    2.5901   -8.5693 H         1 UNK         0.0814 
    109 H109       24.1326    1.6776   -7.2178 H         1 UNK         0.0814 
    110 H110       26.7284   -0.9804   -9.3552 H         1 UNK         0.2983 
    111 H111       27.5110    0.0804  -11.7688 H         1 UNK         0.0947 
    112 H112       28.6696   -2.1252  -12.1074 H         1 UNK         0.0806 
    113 H113       27.1013   -2.3406  -11.3474 H         1 UNK         0.0806 
    114 H114       28.5735   -2.4461  -10.3813 H         1 UNK         0.0806 
    115 H115       29.3633    0.7463  -12.7592 H         1 UNK         0.3000 
    116 H116       31.2441    1.8800  -13.0576 H         1 UNK         0.0850 
    117 H117       33.3478    0.9751  -12.1312 H         1 UNK         0.0810 
    118 H118       32.3068   -0.3477  -12.6288 H         1 UNK         0.0810 
    119 H119       32.4700    0.0546  -10.9208 H         1 UNK         0.0810 
    120 H120       29.3898    3.1136  -11.4152 H         1 UNK         0.3040 
    121 H121       28.9888    4.8103  -10.0449 H         1 UNK         0.0766 
    122 H122       30.6258    6.0311  -11.4861 H         1 UNK         0.0812 
    123 H123       31.9410    5.5610  -10.4102 H         1 UNK         0.0812 
    124 H124       30.6655    6.6217   -9.8327 H         1 UNK         0.0812 
    125 H125       29.0066    2.6168   -8.7557 H         1 UNK         0.3205 
    126 H126       29.1892    1.4604   -6.8807 H         1 UNK         0.0754 
    127 H127       29.4244    2.6337   -4.7128 H         1 UNK         0.0769 
    128 H128       28.3290    3.5077   -5.7710 H         1 UNK         0.0769 
    129 H129       29.9742    4.0923   -5.5212 H         1 UNK         0.0769 
    130 H130       31.0361    0.6995   -8.3760 H         1 UNK         0.2981 
    131 H131       32.9042   -0.4251   -8.5284 H         1 UNK         0.0541 
    132 H132       35.0479    2.6631   -8.5014 H         1 UNK         0.3459 
    133 H133       33.3975    2.3737   -8.9969 H         1 UNK         0.3459 
    134 H134       33.8565   -1.5277   -6.5466 H         1 UNK         0.0612 
    135 H135       33.0662   -0.3936   -5.4782 H         1 UNK         0.0612 
    136 H136       32.5696   -2.7221   -4.3580 H         1 UNK         0.0624 
    137 H137       32.8397   -3.8608   -5.6580 H         1 UNK         0.0624 
@<TRIPOS>BOND
     1    1    2 1    
     2    1   72 1    
     3    1   73 1    
     4    1   74 1    
     5    2    3 2    
     6    2    4 am   BACKBONE|DICT|INTERRES
     7    4    5 1    
     8    4   75 1    
     9    5    6 1    
    10    5   35 1    
    11    5   76 1    
    12    6    7 1    
    13    6   77 1    
    14    6   78 1    
    15    7    8 1    
    16    8    9 1    
    17    8   79 1    
    18    8   80 1    
    19    9   10 ar   
    20    9   14 ar   
    21   10   11 ar   
    22   10   81 1    
    23   11   12 ar   
    24   11   71 1    
    25   12   13 ar   
    26   12   82 1    
    27   13   14 ar   
    28   13   15 1    
    29   14   83 1    
    30   15   16 1    
    31   15   84 1    
    32   15   85 1    
    33   16   17 1    
    34   17   18 1    
    35   17   86 1    
    36   17   87 1    
    37   18   19 1    
    38   18   37 1    
    39   18   88 1    
    40   19   20 am   BACKBONE|DICT|INTERRES
    41   19   89 1    
    42   20   21 2    
    43   20   22 1    
    44   22   23 1    
    45   22   24 1    
    46   22   90 1    
    47   23   91 1    
    48   23   92 1    
    49   23   93 1    
    50   24   25 am   BACKBONE|DICT|INTERRES
    51   24   94 1    
    52   25   26 2    
    53   25   27 1    
    54   27   28 1    
    55   27   29 1    
    56   27   95 1    
    57   28   96 1    
    58   28   97 1    
    59   28   98 1    
    60   29   30 am   BACKBONE|DICT|INTERRES
    61   29   99 1    
    62   30   31 2    
    63   30   32 1    
    64   32   33 1    
    65   32   34 1    
    66   32  100 1    
    67   33  101 1    
    68   33  102 1    
    69   33  103 1    
    70   34   35 am   BACKBONE|DICT|INTERRES
    71   34  104 1    
    72   35   36 2    
    73   37   38 2    
    74   37   39 am   BACKBONE|DICT|INTERRES
    75   39   40 1    
    76   39  105 1    
    77   40   41 1    
    78   40   42 1    
    79   40  106 1    
    80   41  107 1    
    81   41  108 1    
    82   41  109 1    
    83   42   43 2    
    84   42   44 am   BACKBONE|DICT|INTERRES
    85   44   45 1    
    86   44  110 1    
    87   45   46 1    
    88   45   47 1    
    89   45  111 1    
    90   46  112 1    
    91   46  113 1    
    92   46  114 1    
    93   47   48 2    
    94   47   49 am   BACKBONE|DICT|INTERRES
    95   49   50 1    
    96   49  115 1    
    97   50   51 1    
    98   50   52 1    
    99   50  116 1    
   100   51  117 1    
   101   51  118 1    
   102   51  119 1    
   103   52   53 2    
   104   52   54 am   BACKBONE|DICT|INTERRES
   105   54   55 1    
   106   54  120 1    
   107   55   56 1    
   108   55   57 1    
   109   55  121 1    
   110   56  122 1    
   111   56  123 1    
   112   56  124 1    
   113   57   58 2    
   114   57   59 am   BACKBONE|DICT|INTERRES
   115   59   60 1    
   116   59  125 1    
   117   60   61 1    
   118   60   62 1    
   119   60  126 1    
   120   61  127 1    
   121   61  128 1    
   122   61  129 1    
   123   62   63 2    
   124   62   64 am   BACKBONE|DICT|INTERRES
   125   64   65 1    
   126   64  130 1    
   127   65   66 1    
   128   65   69 1    
   129   65  131 1    
   130   66   67 am   BACKBONE|DICT|INTERRES
   131   66   68 2    
   132   67  132 1    
   133   67  133 1    
   134   69   70 1    
   135   69  134 1    
   136   69  135 1    
   137   70   71 1    
   138   71  136 1    
   139   71  137 1    
@<TRIPOS>SUBSTRUCTURE
     1 UNK         1 GROUP             0       ****    0 ROOT    
