@<TRIPOS>MOLECULE
3R137
137   139    1
SMALL
USER_CHARGES


@<TRIPOS>ATOM
      1 CA         27.2911   -5.7422   -2.2574 C.3       0 UNK        -0.2020 
      2 C          26.9625   -5.0515   -0.9425 C.2       0 UNK         0.4855 
      3 O          26.1973   -5.5914   -0.1437 O.2       0 UNK        -0.5197 
      4 N          27.5303   -3.8601   -0.7110 N.am      1 UNK        -0.4892 
      5 CA         27.2670   -3.0224    0.4674 C.3       1 UNK         0.0835 
      6 C6         28.4048   -1.9974    0.7168 C.3       12 UNK        -0.0855 
      7 S7         28.7998   -0.9603   -0.7381 S.3       12 UNK        -0.2931 
      8 C8         30.4351   -1.5866   -1.2409 C.3       12 UNK         0.0378 
      9 C9         30.5070   -1.7402   -2.7515 C.ar      12 UNK        -0.0802 
     10 C10        30.8410   -0.6487   -3.5585 C.ar      12 UNK        -0.0944 
     11 C11        30.8865   -0.7838   -4.9495 C.ar      12 UNK        -0.0787 
     12 C12        30.5991   -2.0224   -5.5303 C.ar      12 UNK        -0.0862 
     13 C13        30.2642   -3.1214   -4.7337 C.ar      12 UNK        -0.0733 
     14 C14        30.2306   -2.9754   -3.3441 C.ar      12 UNK        -0.0832 
     15 C15        29.9505   -4.4720   -5.3654 C.3       12 UNK         0.0240 
     16 S16        28.5776   -4.4105   -6.5641 S.3       12 UNK        -0.2522 
     17 C17        27.1826   -3.7538   -5.5832 C.3       12 UNK        -0.0967 
     18 CA         26.4408   -2.6211   -6.3395 C.3       5 UNK         0.0660 
     19 N          25.0294   -2.5345   -5.9573 N.am      5 UNK        -0.4015 
     20 C          24.0001   -2.7818   -6.7816 C.2       4 UNK         0.4946 
     21 O          24.1246   -3.2073   -7.9311 O.2       4 UNK        -0.5353 
     22 CA         22.5778   -2.5026   -6.2546 C.3       4 UNK         0.0277 
     23 CB         21.9308   -3.8024   -5.7487 C.3       4 UNK        -0.1981 
     24 N          22.5135   -1.4929   -5.1952 N.am      4 UNK        -0.4209 
     25 C          22.9199   -0.2200   -5.3058 C.2       3 UNK         0.4942 
     26 O          23.3386    0.2788   -6.3496 O.2       3 UNK        -0.5208 
     27 CA         22.9120    0.6300   -4.0230 C.3       3 UNK         0.0250 
     28 CB         21.6235    1.4647   -3.9492 C.3       3 UNK        -0.1990 
     29 N          23.0770   -0.1169   -2.7658 N.am      3 UNK        -0.4232 
     30 C          24.0477   -0.9958   -2.4746 C.2       2 UNK         0.4993 
     31 O          24.9104   -1.3705   -3.2778 O.2       2 UNK        -0.5286 
     32 CA         24.0183   -1.5917   -1.0645 C.3       2 UNK         0.0209 
     33 CB         22.9192   -2.6634   -0.9430 C.3       2 UNK        -0.1931 
     34 N          25.3176   -2.1928   -0.7889 N.am      2 UNK        -0.4546 
     35 C          25.8788   -2.3436    0.4164 C.2       1 UNK         0.5154 
     36 O          25.3419   -1.9844    1.4660 O.2       1 UNK        -0.5181 
     37 C          27.1339   -1.2546   -6.1807 C.2       5 UNK         0.5014 
     38 O          27.9202   -0.8827   -7.0513 O.2       5 UNK        -0.5248 
     39 N          26.8145   -0.5034   -5.1136 N.am      6 UNK        -0.4434 
     40 CA         27.4471    0.7762   -4.7647 C.3       6 UNK         0.0363 
     41 CB         26.9410    1.2457   -3.3922 C.3       6 UNK        -0.1936 
     42 C          27.2955    1.8959   -5.8115 C.2       6 UNK         0.5081 
     43 O          28.0760    2.8473   -5.7847 O.2       6 UNK        -0.5248 
     44 N          26.3153    1.7703   -6.7163 N.am      7 UNK        -0.4718 
     45 CA         26.1219    2.6631   -7.8600 C.3       7 UNK         0.0273 
     46 CB         24.6976    2.4712   -8.4060 C.3       7 UNK        -0.1935 
     47 C          27.1605    2.4785   -8.9861 C.2       7 UNK         0.5018 
     48 O          27.2369    3.3473   -9.8570 O.2       7 UNK        -0.5186 
     49 N          27.9173    1.3688   -8.9871 N.am      8 UNK        -0.4240 
     50 CA         28.9503    1.0819   -9.9869 C.3       8 UNK         0.0235 
     51 CB         29.3970   -0.3845   -9.8658 C.3       8 UNK        -0.2000 
     52 C          30.1604    2.0205   -9.8480 C.2       8 UNK         0.4941 
     53 O          30.6037    2.2906   -8.7299 O.2       8 UNK        -0.5273 
     54 N          30.6901    2.4737  -10.9893 N.am      9 UNK        -0.4262 
     55 CA         31.9111    3.2743  -11.0672 C.3       9 UNK         0.0264 
     56 CB         31.8563    4.1534  -12.3278 C.3       9 UNK        -0.1955 
     57 C          33.1447    2.3603  -11.1061 C.2       9 UNK         0.5031 
     58 O          33.0822    1.2830  -11.7046 O.2       9 UNK        -0.5390 
     59 N          34.2466    2.8318  -10.5041 N.am      10 UNK        -0.4204 
     60 CA         35.5750    2.2008  -10.4663 C.3       10 UNK         0.0237 
     61 CB         36.2263    2.2325  -11.8665 C.3       10 UNK        -0.1985 
     62 C          35.5862    0.7918   -9.8344 C.2       10 UNK         0.4970 
     63 O          36.3404   -0.0754  -10.2802 O.2       10 UNK        -0.4914 
     64 N          34.7565    0.5907   -8.8027 N.am      11 UNK        -0.4285 
     65 CA         34.6401   -0.6690   -8.0504 C.3       11 UNK         0.1007 
     66 C          35.8437   -1.0061   -7.1197 C.2       11 UNK         0.5703 
     67 N          36.7644   -0.0850   -6.8585 N.am      11 UNK        -0.7361 
     68 O          35.9515   -2.1322   -6.6396 O.2       11 UNK        -0.4986 
     69 C69        33.2806   -0.7655   -7.3103 C.3       12 UNK        -0.0947 
     70 S70        32.9907    0.5899   -6.1214 S.3       12 UNK        -0.2240 
     71 C71        31.2047    0.4190   -5.8257 C.3       12 UNK         0.0194 
     72 H72        26.3786   -5.9169   -2.8270 H         1 UNK         0.0906 
     73 H73        27.9649   -5.1504   -2.8733 H         1 UNK         0.0906 
     74 H74        27.7635   -6.7056   -2.0675 H         1 UNK         0.0906 
     75 H75        28.1409   -3.4415   -1.3973 H         1 UNK         0.3140 
     76 H76        27.2375   -3.6823    1.3379 H         1 UNK         0.1085 
     77 H77        28.1494   -1.3372    1.5483 H         1 UNK         0.0836 
     78 H78        29.3003   -2.5257    1.0458 H         1 UNK         0.0836 
     79 H79        31.2057   -0.8963   -0.8941 H         1 UNK         0.0731 
     80 H80        30.6487   -2.5447   -0.7653 H         1 UNK         0.0731 
     81 H81        31.0501    0.3104   -3.1045 H         1 UNK         0.1312 
     82 H82        30.6149   -2.1268   -6.6066 H         1 UNK         0.1406 
     83 H83        29.9915   -3.8251   -2.7207 H         1 UNK         0.1631 
     84 H84        29.7155   -5.2169   -4.6042 H         1 UNK         0.0717 
     85 H85        30.8430   -4.8332   -5.8778 H         1 UNK         0.0717 
     86 H86        26.5057   -4.5912   -5.4065 H         1 UNK         0.0934 
     87 H87        27.5107   -3.4253   -4.5959 H         1 UNK         0.0934 
     88 H88        26.4937   -2.8468   -7.4069 H         1 UNK         0.0739 
     89 H89        24.8328   -2.1844   -5.0244 H         1 UNK         0.3093 
     90 H90        21.9900   -2.1297   -7.0960 H         1 UNK         0.0818 
     91 H91        20.8906   -3.6444   -5.4630 H         1 UNK         0.0819 
     92 H92        21.9375   -4.5694   -6.5246 H         1 UNK         0.0819 
     93 H93        22.4601   -4.2080   -4.8855 H         1 UNK         0.0819 
     94 H94        22.1841   -1.8044   -4.2935 H         1 UNK         0.3041 
     95 H95        23.7507    1.3218   -4.1023 H         1 UNK         0.0784 
     96 H96        21.4831    2.0490   -4.8601 H         1 UNK         0.0793 
     97 H97        20.7410    0.8356   -3.8265 H         1 UNK         0.0793 
     98 H98        21.6529    2.1701   -3.1184 H         1 UNK         0.0793 
     99 H99        22.4058    0.0998   -2.0423 H         1 UNK         0.3024 
    100 H100       23.8339   -0.7839   -0.3523 H         1 UNK         0.1171 
    101 H101       23.0746   -3.4802   -1.6493 H         1 UNK         0.0786 
    102 H102       21.9312   -2.2443   -1.1369 H         1 UNK         0.0786 
    103 H103       22.8940   -3.0921    0.0591 H         1 UNK         0.0786 
    104 H104       25.8439   -2.4490   -1.6140 H         1 UNK         0.2977 
    105 H105       26.1467   -0.8611   -4.4328 H         1 UNK         0.3127 
    106 H106       28.5141    0.5814   -4.6704 H         1 UNK         0.0770 
    107 H107       25.8896    1.5243   -3.4205 H         1 UNK         0.0814 
    108 H108       27.4986    2.1188   -3.0511 H         1 UNK         0.0814 
    109 H109       27.0619    0.4708   -2.6365 H         1 UNK         0.0814 
    110 H110       25.6965    0.9725   -6.6520 H         1 UNK         0.2983 
    111 H111       26.2139    3.6931   -7.5081 H         1 UNK         0.0947 
    112 H112       24.5061    3.1359   -9.2495 H         1 UNK         0.0806 
    113 H113       23.9486    2.6928   -7.6454 H         1 UNK         0.0806 
    114 H114       24.5324    1.4494   -8.7502 H         1 UNK         0.0806 
    115 H115       27.8310    0.7050   -8.2221 H         1 UNK         0.3000 
    116 H116       28.5043    1.2222  -10.9740 H         1 UNK         0.0850 
    117 H117       30.1216   -0.6379  -10.6407 H         1 UNK         0.0810 
    118 H118       28.5543   -1.0682   -9.9702 H         1 UNK         0.0810 
    119 H119       29.8697   -0.5830   -8.9032 H         1 UNK         0.0810 
    120 H120       30.3074    2.1562  -11.8683 H         1 UNK         0.3040 
    121 H121       31.9726    3.9271  -10.1933 H         1 UNK         0.0766 
    122 H122       32.7432    4.7840  -12.4039 H         1 UNK         0.0812 
    123 H123       30.9901    4.8152  -12.3124 H         1 UNK         0.0812 
    124 H124       31.8048    3.5540  -13.2379 H         1 UNK         0.0812 
    125 H125       34.1819    3.7270  -10.0378 H         1 UNK         0.3205 
    126 H126       36.1867    2.8221   -9.8103 H         1 UNK         0.0754 
    127 H127       37.2619    1.8924  -11.8269 H         1 UNK         0.0769 
    128 H128       36.2356    3.2422  -12.2771 H         1 UNK         0.0769 
    129 H129       35.6992    1.5890  -12.5718 H         1 UNK         0.0769 
    130 H130       34.1713    1.3485   -8.4835 H         1 UNK         0.2981 
    131 H131       34.6348   -1.4688   -8.7936 H         1 UNK         0.0541 
    132 H132       37.5409   -0.3191   -6.2604 H         1 UNK         0.3459 
    133 H133       36.6825    0.8425   -7.2413 H         1 UNK         0.3459 
    134 H134       33.1953   -1.7186   -6.7855 H         1 UNK         0.0612 
    135 H135       32.4727   -0.7552   -8.0438 H         1 UNK         0.0612 
    136 H136       30.8424    1.3309   -5.3489 H         1 UNK         0.0624 
    137 H137       30.6741    0.3486   -6.7760 H         1 UNK         0.0624 
@<TRIPOS>BOND
     1    1    2 1    
     2    1   72 1    
     3    1   73 1    
     4    1   74 1    
     5    2    3 2    
     6    2    4 am   BACKBONE|DICT|INTERRES
     7    4    5 1    
     8    4   75 1    
     9    5    6 1    
    10    5   35 1    
    11    5   76 1    
    12    6    7 1    
    13    6   77 1    
    14    6   78 1    
    15    7    8 1    
    16    8    9 1    
    17    8   79 1    
    18    8   80 1    
    19    9   10 ar   
    20    9   14 ar   
    21   10   11 ar   
    22   10   81 1    
    23   11   12 ar   
    24   11   71 1    
    25   12   13 ar   
    26   12   82 1    
    27   13   14 ar   
    28   13   15 1    
    29   14   83 1    
    30   15   16 1    
    31   15   84 1    
    32   15   85 1    
    33   16   17 1    
    34   17   18 1    
    35   17   86 1    
    36   17   87 1    
    37   18   19 1    
    38   18   37 1    
    39   18   88 1    
    40   19   20 am   BACKBONE|DICT|INTERRES
    41   19   89 1    
    42   20   21 2    
    43   20   22 1    
    44   22   23 1    
    45   22   24 1    
    46   22   90 1    
    47   23   91 1    
    48   23   92 1    
    49   23   93 1    
    50   24   25 am   BACKBONE|DICT|INTERRES
    51   24   94 1    
    52   25   26 2    
    53   25   27 1    
    54   27   28 1    
    55   27   29 1    
    56   27   95 1    
    57   28   96 1    
    58   28   97 1    
    59   28   98 1    
    60   29   30 am   BACKBONE|DICT|INTERRES
    61   29   99 1    
    62   30   31 2    
    63   30   32 1    
    64   32   33 1    
    65   32   34 1    
    66   32  100 1    
    67   33  101 1    
    68   33  102 1    
    69   33  103 1    
    70   34   35 am   BACKBONE|DICT|INTERRES
    71   34  104 1    
    72   35   36 2    
    73   37   38 2    
    74   37   39 am   BACKBONE|DICT|INTERRES
    75   39   40 1    
    76   39  105 1    
    77   40   41 1    
    78   40   42 1    
    79   40  106 1    
    80   41  107 1    
    81   41  108 1    
    82   41  109 1    
    83   42   43 2    
    84   42   44 am   BACKBONE|DICT|INTERRES
    85   44   45 1    
    86   44  110 1    
    87   45   46 1    
    88   45   47 1    
    89   45  111 1    
    90   46  112 1    
    91   46  113 1    
    92   46  114 1    
    93   47   48 2    
    94   47   49 am   BACKBONE|DICT|INTERRES
    95   49   50 1    
    96   49  115 1    
    97   50   51 1    
    98   50   52 1    
    99   50  116 1    
   100   51  117 1    
   101   51  118 1    
   102   51  119 1    
   103   52   53 2    
   104   52   54 am   BACKBONE|DICT|INTERRES
   105   54   55 1    
   106   54  120 1    
   107   55   56 1    
   108   55   57 1    
   109   55  121 1    
   110   56  122 1    
   111   56  123 1    
   112   56  124 1    
   113   57   58 2    
   114   57   59 am   BACKBONE|DICT|INTERRES
   115   59   60 1    
   116   59  125 1    
   117   60   61 1    
   118   60   62 1    
   119   60  126 1    
   120   61  127 1    
   121   61  128 1    
   122   61  129 1    
   123   62   63 2    
   124   62   64 am   BACKBONE|DICT|INTERRES
   125   64   65 1    
   126   64  130 1    
   127   65   66 1    
   128   65   69 1    
   129   65  131 1    
   130   66   67 am   BACKBONE|DICT|INTERRES
   131   66   68 2    
   132   67  132 1    
   133   67  133 1    
   134   69   70 1    
   135   69  134 1    
   136   69  135 1    
   137   70   71 1    
   138   71  136 1    
   139   71  137 1    
@<TRIPOS>SUBSTRUCTURE
     1 UNK         1 GROUP             0       ****    0 ROOT    
