@<TRIPOS>MOLECULE
3R137
137   139    1
SMALL
USER_CHARGES


@<TRIPOS>ATOM
      1 CA         27.1795   -6.5859   -3.1756 C.3       0 UNK        -0.2020 
      2 C          27.0255   -5.8641   -1.8461 C.2       0 UNK         0.4855 
      3 O          26.1798   -6.2482   -1.0382 O.2       0 UNK        -0.5197 
      4 N          27.8406   -4.8271   -1.6093 N.am      1 UNK        -0.4892 
      5 CA         27.8172   -4.0096   -0.3892 C.3       1 UNK         0.0835 
      6 C6         29.0749   -3.1164   -0.2715 C.3       12 UNK        -0.0855 
      7 S7         30.6078   -4.0414    0.1049 S.3       12 UNK        -0.2931 
      8 C8         31.1812   -4.7082   -1.5006 C.3       12 UNK         0.0378 
      9 C9         31.0733   -3.7348   -2.6701 C.ar      12 UNK        -0.0802 
     10 C10        31.5334   -2.4185   -2.5601 C.ar      12 UNK        -0.0944 
     11 C11        31.3878   -1.5130   -3.6155 C.ar      12 UNK        -0.0787 
     12 C12        30.7826   -1.9501   -4.8027 C.ar      12 UNK        -0.0862 
     13 C13        30.3557   -3.2755   -4.9425 C.ar      12 UNK        -0.0733 
     14 C14        30.5120   -4.1627   -3.8756 C.ar      12 UNK        -0.0832 
     15 C15        29.7581   -3.7582   -6.2585 C.3       12 UNK         0.0240 
     16 S16        28.0869   -4.4707   -6.0920 S.3       12 UNK        -0.2522 
     17 C17        27.1108   -3.0801   -5.4330 C.3       12 UNK        -0.0967 
     18 CA         26.5633   -2.1406   -6.5416 C.3       5 UNK         0.0660 
     19 N          25.2665   -1.5622   -6.1888 N.am      5 UNK        -0.4015 
     20 C          24.4280   -0.9810   -7.0605 C.2       4 UNK         0.4946 
     21 O          24.6060   -0.9681   -8.2786 O.2       4 UNK        -0.5353 
     22 CA         23.1918   -0.2704   -6.4779 C.3       4 UNK         0.0277 
     23 CB         21.9879   -1.2256   -6.4472 C.3       4 UNK        -0.1981 
     24 N          23.4141    0.2750   -5.1355 N.am      4 UNK        -0.4209 
     25 C          24.2695    1.2675   -4.8491 C.2       3 UNK         0.4942 
     26 O          24.9166    1.8773   -5.6978 O.2       3 UNK        -0.5208 
     27 CA         24.4889    1.5942   -3.3619 C.3       3 UNK         0.0250 
     28 CB         23.4938    2.6680   -2.8947 C.3       3 UNK        -0.1990 
     29 N          24.4036    0.4244   -2.4791 N.am      3 UNK        -0.4232 
     30 C          25.1815   -0.6634   -2.5680 C.2       2 UNK         0.4993 
     31 O          26.0491   -0.8216   -3.4333 O.2       2 UNK        -0.5286 
     32 CA         24.8912   -1.7869   -1.5692 C.3       2 UNK         0.0209 
     33 CB         23.7052   -2.6423   -2.0490 C.3       2 UNK        -0.1931 
     34 N          26.0708   -2.6382   -1.4450 N.am      2 UNK        -0.4546 
     35 C          26.5414   -3.1453   -0.2988 C.2       1 UNK         0.5154 
     36 O          26.0120   -2.9611    0.7986 O.2       1 UNK        -0.5181 
     37 C          27.5557   -1.0120   -6.8645 C.2       5 UNK         0.5014 
     38 O          28.1730   -1.0279   -7.9299 O.2       5 UNK        -0.5248 
     39 N          27.6629   -0.0352   -5.9510 N.am      6 UNK        -0.4434 
     40 CA         28.5457    1.1266   -6.0754 C.3       6 UNK         0.0363 
     41 CB         28.4838    1.9678   -4.7922 C.3       6 UNK        -0.1936 
     42 C          28.2613    1.9854   -7.3172 C.2       6 UNK         0.5081 
     43 O          29.2027    2.3844   -7.9997 O.2       6 UNK        -0.5248 
     44 N          26.9770    2.2064   -7.6266 N.am      7 UNK        -0.4718 
     45 CA         26.5196    2.9175   -8.8240 C.3       7 UNK         0.0273 
     46 CB         24.9951    3.1001   -8.7527 C.3       7 UNK        -0.1935 
     47 C          26.9136    2.2333  -10.1463 C.2       7 UNK         0.5018 
     48 O          27.1042    2.9291  -11.1445 O.2       7 UNK        -0.5186 
     49 N          27.0270    0.8985  -10.1343 N.am      8 UNK        -0.4240 
     50 CA         27.4431    0.0983  -11.2838 C.3       8 UNK         0.0235 
     51 CB         26.7901   -1.2922  -11.2035 C.3       8 UNK        -0.2000 
     52 C          28.9722   -0.0191  -11.3724 C.2       8 UNK         0.4941 
     53 O          29.5335    0.2011  -12.4462 O.2       8 UNK        -0.5273 
     54 N          29.6153   -0.3911  -10.2575 N.am      9 UNK        -0.4262 
     55 CA         31.0388   -0.7328  -10.2047 C.3       9 UNK         0.0264 
     56 CB         31.2690   -1.7149   -9.0455 C.3       9 UNK        -0.1955 
     57 C          31.9820    0.4695  -10.0525 C.2       9 UNK         0.5031 
     58 O          33.1806    0.3034  -10.2856 O.2       9 UNK        -0.5390 
     59 N          31.4706    1.6230   -9.5978 N.am      10 UNK        -0.4204 
     60 CA         32.1886    2.8419   -9.1884 C.3       10 UNK         0.0237 
     61 CB         33.0727    3.4178  -10.3131 C.3       10 UNK        -0.1985 
     62 C          32.9705    2.6727   -7.8710 C.2       10 UNK         0.4970 
     63 O          32.8576    3.5397   -7.0038 O.2       10 UNK        -0.4914 
     64 N          33.7032    1.5560   -7.7467 N.am      11 UNK        -0.4285 
     65 CA         34.4300    1.0519   -6.5690 C.3       11 UNK         0.1007 
     66 C          35.3068    2.1065   -5.8259 C.2       11 UNK         0.5703 
     67 N          35.3849    2.0755   -4.5017 N.am      11 UNK        -0.7361 
     68 O          35.9835    2.9160   -6.4580 O.2       11 UNK        -0.4986 
     69 C69        33.5497    0.1217   -5.6768 C.3       12 UNK        -0.0947 
     70 S70        32.1112    0.9318   -4.9006 S.3       12 UNK        -0.2240 
     71 C71        31.8652   -0.0741   -3.3980 C.3       12 UNK         0.0194 
     72 H72        27.1399   -7.6646   -3.0262 H         1 UNK         0.0906 
     73 H73        26.3717   -6.3055   -3.8511 H         1 UNK         0.0906 
     74 H74        28.1264   -6.3516   -3.6589 H         1 UNK         0.0906 
     75 H75        28.5216   -4.5543   -2.3026 H         1 UNK         0.3140 
     76 H76        27.7973   -4.6870    0.4679 H         1 UNK         0.1085 
     77 H77        28.9527   -2.4073    0.5502 H         1 UNK         0.0836 
     78 H78        29.1991   -2.4997   -1.1620 H         1 UNK         0.0836 
     79 H79        32.2231   -5.0137   -1.3971 H         1 UNK         0.0731 
     80 H80        30.6196   -5.6206   -1.7069 H         1 UNK         0.0731 
     81 H81        31.9827   -2.0900   -1.6326 H         1 UNK         0.1312 
     82 H82        30.6502   -1.2674   -5.6282 H         1 UNK         0.1406 
     83 H83        30.1929   -5.1893   -3.9918 H         1 UNK         0.1631 
     84 H84        30.4177   -4.5156   -6.6838 H         1 UNK         0.0717 
     85 H85        29.7210   -2.9510   -6.9862 H         1 UNK         0.0717 
     86 H86        26.2783   -3.5346   -4.8934 H         1 UNK         0.0934 
     87 H87        27.6833   -2.5456   -4.6725 H         1 UNK         0.0934 
     88 H88        26.4155   -2.7243   -7.4532 H         1 UNK         0.0739 
     89 H89        25.0864   -1.4583   -5.1988 H         1 UNK         0.3093 
     90 H90        22.9518    0.5634   -7.1415 H         1 UNK         0.0818 
     91 H91        21.0832   -0.7142   -6.1178 H         1 UNK         0.0819 
     92 H92        21.7856   -1.6287   -7.4407 H         1 UNK         0.0819 
     93 H93        22.1583   -2.0722   -5.7809 H         1 UNK         0.0819 
     94 H94        22.9119   -0.1589   -4.3749 H         1 UNK         0.3041 
     95 H95        25.4975    2.0005   -3.2649 H         1 UNK         0.0784 
     96 H96        23.5550    3.5565   -3.5252 H         1 UNK         0.0793 
     97 H97        22.4638    2.3112   -2.9336 H         1 UNK         0.0793 
     98 H98        23.7021    2.9850   -1.8726 H         1 UNK         0.0793 
     99 H99        23.7061    0.4649   -1.7492 H         1 UNK         0.3024 
    100 H100       24.6509   -1.3325   -0.6050 H         1 UNK         0.1171 
    101 H101       22.7962   -2.0465   -2.1392 H         1 UNK         0.0786 
    102 H102       23.4925   -3.4483   -1.3462 H         1 UNK         0.0786 
    103 H103       23.9005   -3.0946   -3.0223 H         1 UNK         0.0786 
    104 H104       26.5999   -2.7653   -2.2965 H         1 UNK         0.2977 
    105 H105       27.1163   -0.1086   -5.0992 H         1 UNK         0.3127 
    106 H106       29.5599    0.7438   -6.1854 H         1 UNK         0.0770 
    107 H107       27.4913    2.3895   -4.6333 H         1 UNK         0.0814 
    108 H108       29.1888    2.7988   -4.8412 H         1 UNK         0.0814 
    109 H109       28.7446    1.3742   -3.9158 H         1 UNK         0.0814 
    110 H110       26.2571    1.9008   -6.9737 H         1 UNK         0.2983 
    111 H111       26.9855    3.9052   -8.8188 H         1 UNK         0.0947 
    112 H112       24.6227    3.6387   -9.6252 H         1 UNK         0.0806 
    113 H113       24.7053    3.6723   -7.8712 H         1 UNK         0.0806 
    114 H114       24.4778    2.1405   -8.7134 H         1 UNK         0.0806 
    115 H115       26.8770    0.4062   -9.2629 H         1 UNK         0.3000 
    116 H116       27.0910    0.5763  -12.2008 H         1 UNK         0.0850 
    117 H117       27.0750   -1.9074  -12.0580 H         1 UNK         0.0810 
    118 H118       25.7024   -1.2173  -11.2050 H         1 UNK         0.0810 
    119 H119       27.0820   -1.8307  -10.3011 H         1 UNK         0.0810 
    120 H120       29.0721   -0.5679   -9.4120 H         1 UNK         0.3040 
    121 H121       31.3107   -1.2407  -11.1326 H         1 UNK         0.0766 
    122 H122       32.3105   -2.0364   -9.0009 H         1 UNK         0.0812 
    123 H123       30.6597   -2.6110   -9.1624 H         1 UNK         0.0812 
    124 H124       31.0273   -1.2594   -8.0846 H         1 UNK         0.0812 
    125 H125       30.4859    1.6340   -9.3455 H         1 UNK         0.3205 
    126 H126       31.4079    3.5782   -8.9913 H         1 UNK         0.0754 
    127 H127       33.4713    4.3920  -10.0275 H         1 UNK         0.0769 
    128 H128       32.5034    3.5565  -11.2322 H         1 UNK         0.0769 
    129 H129       33.9255    2.7776  -10.5390 H         1 UNK         0.0769 
    130 H130       33.7382    0.9582   -8.5669 H         1 UNK         0.2981 
    131 H131       35.1804    0.3919   -7.0052 H         1 UNK         0.0541 
    132 H132       35.9736    2.7417   -4.0272 H         1 UNK         0.3459 
    133 H133       34.8278    1.4247   -3.9718 H         1 UNK         0.3459 
    134 H134       34.1585   -0.3539   -4.9065 H         1 UNK         0.0612 
    135 H135       33.1678   -0.6994   -6.2853 H         1 UNK         0.0612 
    136 H136       32.7975   -0.0768   -2.8313 H         1 UNK         0.0624 
    137 H137       31.1286    0.4335   -2.7742 H         1 UNK         0.0624 
@<TRIPOS>BOND
     1    1    2 1    
     2    1   72 1    
     3    1   73 1    
     4    1   74 1    
     5    2    3 2    
     6    2    4 am   BACKBONE|DICT|INTERRES
     7    4    5 1    
     8    4   75 1    
     9    5    6 1    
    10    5   35 1    
    11    5   76 1    
    12    6    7 1    
    13    6   77 1    
    14    6   78 1    
    15    7    8 1    
    16    8    9 1    
    17    8   79 1    
    18    8   80 1    
    19    9   10 ar   
    20    9   14 ar   
    21   10   11 ar   
    22   10   81 1    
    23   11   12 ar   
    24   11   71 1    
    25   12   13 ar   
    26   12   82 1    
    27   13   14 ar   
    28   13   15 1    
    29   14   83 1    
    30   15   16 1    
    31   15   84 1    
    32   15   85 1    
    33   16   17 1    
    34   17   18 1    
    35   17   86 1    
    36   17   87 1    
    37   18   19 1    
    38   18   37 1    
    39   18   88 1    
    40   19   20 am   BACKBONE|DICT|INTERRES
    41   19   89 1    
    42   20   21 2    
    43   20   22 1    
    44   22   23 1    
    45   22   24 1    
    46   22   90 1    
    47   23   91 1    
    48   23   92 1    
    49   23   93 1    
    50   24   25 am   BACKBONE|DICT|INTERRES
    51   24   94 1    
    52   25   26 2    
    53   25   27 1    
    54   27   28 1    
    55   27   29 1    
    56   27   95 1    
    57   28   96 1    
    58   28   97 1    
    59   28   98 1    
    60   29   30 am   BACKBONE|DICT|INTERRES
    61   29   99 1    
    62   30   31 2    
    63   30   32 1    
    64   32   33 1    
    65   32   34 1    
    66   32  100 1    
    67   33  101 1    
    68   33  102 1    
    69   33  103 1    
    70   34   35 am   BACKBONE|DICT|INTERRES
    71   34  104 1    
    72   35   36 2    
    73   37   38 2    
    74   37   39 am   BACKBONE|DICT|INTERRES
    75   39   40 1    
    76   39  105 1    
    77   40   41 1    
    78   40   42 1    
    79   40  106 1    
    80   41  107 1    
    81   41  108 1    
    82   41  109 1    
    83   42   43 2    
    84   42   44 am   BACKBONE|DICT|INTERRES
    85   44   45 1    
    86   44  110 1    
    87   45   46 1    
    88   45   47 1    
    89   45  111 1    
    90   46  112 1    
    91   46  113 1    
    92   46  114 1    
    93   47   48 2    
    94   47   49 am   BACKBONE|DICT|INTERRES
    95   49   50 1    
    96   49  115 1    
    97   50   51 1    
    98   50   52 1    
    99   50  116 1    
   100   51  117 1    
   101   51  118 1    
   102   51  119 1    
   103   52   53 2    
   104   52   54 am   BACKBONE|DICT|INTERRES
   105   54   55 1    
   106   54  120 1    
   107   55   56 1    
   108   55   57 1    
   109   55  121 1    
   110   56  122 1    
   111   56  123 1    
   112   56  124 1    
   113   57   58 2    
   114   57   59 am   BACKBONE|DICT|INTERRES
   115   59   60 1    
   116   59  125 1    
   117   60   61 1    
   118   60   62 1    
   119   60  126 1    
   120   61  127 1    
   121   61  128 1    
   122   61  129 1    
   123   62   63 2    
   124   62   64 am   BACKBONE|DICT|INTERRES
   125   64   65 1    
   126   64  130 1    
   127   65   66 1    
   128   65   69 1    
   129   65  131 1    
   130   66   67 am   BACKBONE|DICT|INTERRES
   131   66   68 2    
   132   67  132 1    
   133   67  133 1    
   134   69   70 1    
   135   69  134 1    
   136   69  135 1    
   137   70   71 1    
   138   71  136 1    
   139   71  137 1    
@<TRIPOS>SUBSTRUCTURE
     1 UNK         1 GROUP             0       ****    0 ROOT    
