@<TRIPOS>MOLECULE
3R137
137   139    1
SMALL
USER_CHARGES


@<TRIPOS>ATOM
      1 CA         26.5423   -5.2410   -2.0281 C.3       0 UNK        -0.2020 
      2 C          27.0440   -4.0165   -1.2782 C.2       0 UNK         0.4855 
      3 O          26.5892   -3.7446   -0.1671 O.2       0 UNK        -0.5197 
      4 N          27.9725   -3.2659   -1.8820 N.am      1 UNK        -0.4892 
      5 CA         28.5571   -2.0393   -1.3342 C.3       1 UNK         0.0835 
      6 C6         29.9455   -1.7536   -1.9611 C.3       12 UNK        -0.0855 
      7 S7         31.2965   -2.6670   -1.1354 S.3       12 UNK        -0.2931 
      8 C8         31.3304   -4.2885   -1.9702 C.3       12 UNK         0.0378 
      9 C9         31.5071   -4.1840   -3.4789 C.ar      12 UNK        -0.0802 
     10 C10        32.7289   -3.7885   -4.0341 C.ar      12 UNK        -0.0944 
     11 C11        32.8800   -3.6978   -5.4224 C.ar      12 UNK        -0.0787 
     12 C12        31.7917   -3.9904   -6.2519 C.ar      12 UNK        -0.0862 
     13 C13        30.5639   -4.3823   -5.7098 C.ar      12 UNK        -0.0733 
     14 C14        30.4414   -4.5043   -4.3227 C.ar      12 UNK        -0.0832 
     15 C15        29.3794   -4.6700   -6.6306 C.3       12 UNK         0.0240 
     16 S16        27.7877   -4.0234   -6.0034 S.3       12 UNK        -0.2522 
     17 C17        28.1470   -2.2416   -5.8584 C.3       12 UNK        -0.0967 
     18 CA         27.4545   -1.4012   -6.9549 C.3       5 UNK         0.0660 
     19 N          25.9947   -1.5360   -6.9115 N.am      5 UNK        -0.4015 
     20 C          25.0910   -0.8151   -7.5927 C.2       4 UNK         0.4946 
     21 O          25.3806   -0.0017   -8.4715 O.2       4 UNK        -0.5353 
     22 CA         23.6154   -0.9675   -7.1753 C.3       4 UNK         0.0277 
     23 CB         22.8832   -1.8998   -8.1532 C.3       4 UNK        -0.1981 
     24 N          23.3969   -1.4365   -5.7967 N.am      4 UNK        -0.4209 
     25 C          23.9219   -0.9008   -4.6825 C.2       3 UNK         0.4942 
     26 O          24.6914    0.0635   -4.6980 O.2       3 UNK        -0.5208 
     27 CA         23.5613   -1.5947   -3.3506 C.3       3 UNK         0.0250 
     28 CB         23.6282   -3.1317   -3.4594 C.3       3 UNK        -0.1990 
     29 N          24.4494   -1.1795   -2.2645 N.am      3 UNK        -0.4232 
     30 C          24.4123   -0.0078   -1.6166 C.2       2 UNK         0.4993 
     31 O          23.5198    0.8288   -1.7654 O.2       2 UNK        -0.5286 
     32 CA         25.5534    0.2781   -0.6193 C.3       2 UNK         0.0209 
     33 CB         25.0045    0.4257    0.8106 C.3       2 UNK        -0.1931 
     34 N          26.6108   -0.7416   -0.6132 N.am      2 UNK        -0.4546 
     35 C          27.5682   -0.8743   -1.5414 C.2       1 UNK         0.5154 
     36 O          27.6558   -0.1589   -2.5393 O.2       1 UNK        -0.5181 
     37 C          27.9334    0.0578   -6.8374 C.2       5 UNK         0.5014 
     38 O          28.8463    0.4368   -7.5686 O.2       5 UNK        -0.5248 
     39 N          27.2832    0.8617   -5.9818 N.am      6 UNK        -0.4434 
     40 CA         27.5870    2.2809   -5.7766 C.3       6 UNK         0.0363 
     41 CB         26.6996    2.8257   -4.6465 C.3       6 UNK        -0.1936 
     42 C          27.4443    3.1508   -7.0415 C.2       6 UNK         0.5081 
     43 O          28.0957    4.1922   -7.1228 O.2       6 UNK        -0.5248 
     44 N          26.6202    2.7112   -8.0023 N.am      7 UNK        -0.4718 
     45 CA         26.4709    3.3325   -9.3171 C.3       7 UNK         0.0273 
     46 CB         24.9752    3.4409   -9.6580 C.3       7 UNK        -0.1935 
     47 C          27.2114    2.5306  -10.3984 C.2       7 UNK         0.5018 
     48 O          27.8814    3.1313  -11.2387 O.2       7 UNK        -0.5186 
     49 N          27.0579    1.1987  -10.3794 N.am      8 UNK        -0.4240 
     50 CA         27.5458    0.2921  -11.4207 C.3       8 UNK         0.0235 
     51 CB         26.8160   -1.0561  -11.2983 C.3       8 UNK        -0.2000 
     52 C          29.0674    0.0753  -11.4135 C.2       8 UNK         0.4941 
     53 O          29.6565   -0.0335  -12.4900 O.2       8 UNK        -0.5273 
     54 N          29.6665   -0.0173  -10.2203 N.am      9 UNK        -0.4262 
     55 CA         31.0824   -0.3402  -10.0174 C.3       9 UNK         0.0264 
     56 CB         31.1767   -1.6452   -9.2081 C.3       9 UNK        -0.1955 
     57 C          31.8484    0.7850   -9.3034 C.2       9 UNK         0.5031 
     58 O          33.0701    0.8499   -9.4380 O.2       9 UNK        -0.5390 
     59 N          31.1384    1.6239   -8.5355 N.am      10 UNK        -0.4204 
     60 CA         31.5963    2.7351   -7.6899 C.3       10 UNK         0.0237 
     61 CB         32.4394    3.7617   -8.4718 C.3       10 UNK        -0.1985 
     62 C          32.2974    2.2860   -6.3955 C.2       10 UNK         0.4970 
     63 O          32.1307    2.9493   -5.3711 O.2       10 UNK        -0.4914 
     64 N          33.0438    1.1770   -6.4451 N.am      11 UNK        -0.4285 
     65 CA         33.6063    0.4833   -5.2794 C.3       11 UNK         0.1007 
     66 C          32.5316   -0.1506   -4.3529 C.2       11 UNK         0.5703 
     67 N          32.9090   -0.4719   -3.1225 N.am      11 UNK        -0.7361 
     68 O          31.3840   -0.3694   -4.7357 O.2       11 UNK        -0.4986 
     69 C69        34.7049   -0.5350   -5.6886 C.3       12 UNK        -0.0947 
     70 S70        34.1867   -1.7547   -6.9463 S.3       12 UNK        -0.2240 
     71 C71        34.2263   -3.3340   -6.0364 C.3       12 UNK         0.0194 
     72 H72        26.8631   -5.2430   -3.0697 H         1 UNK         0.0906 
     73 H73        26.9158   -6.1481   -1.5537 H         1 UNK         0.0906 
     74 H74        25.4534   -5.2739   -2.0111 H         1 UNK         0.0906 
     75 H75        28.2756   -3.5066   -2.8131 H         1 UNK         0.3140 
     76 H76        28.6923   -2.1568   -0.2561 H         1 UNK         0.1085 
     77 H77        29.9466   -1.9428   -3.0357 H         1 UNK         0.0836 
     78 H78        30.1981   -0.6962   -1.8567 H         1 UNK         0.0836 
     79 H79        32.1516   -4.8757   -1.5569 H         1 UNK         0.0731 
     80 H80        30.4184   -4.8327   -1.7208 H         1 UNK         0.0731 
     81 H81        33.5602   -3.5550   -3.3831 H         1 UNK         0.1312 
     82 H82        31.9072   -3.9139   -7.3243 H         1 UNK         0.1406 
     83 H83        29.5058   -4.8387   -3.8995 H         1 UNK         0.1631 
     84 H84        29.2929   -5.7489   -6.7643 H         1 UNK         0.0717 
     85 H85        29.5540   -4.2464   -7.6211 H         1 UNK         0.0717 
     86 H86        29.2275   -2.0822   -5.8845 H         1 UNK         0.0934 
     87 H87        27.8283   -1.9126   -4.8669 H         1 UNK         0.0934 
     88 H88        27.7786   -1.7702   -7.9298 H         1 UNK         0.0739 
     89 H89        25.6449   -2.1913   -6.2294 H         1 UNK         0.3093 
     90 H90        23.1665    0.0251   -7.2482 H         1 UNK         0.0818 
     91 H91        21.8117   -1.9244   -7.9537 H         1 UNK         0.0819 
     92 H92        23.0095   -1.5622   -9.1832 H         1 UNK         0.0819 
     93 H93        23.2608   -2.9215   -8.0971 H         1 UNK         0.0819 
     94 H94        22.7785   -2.2283   -5.6933 H         1 UNK         0.3041 
     95 H95        22.5403   -1.3052   -3.0934 H         1 UNK         0.0784 
     96 H96        22.8692   -3.5228   -4.1376 H         1 UNK         0.0793 
     97 H97        24.6004   -3.4703   -3.8209 H         1 UNK         0.0793 
     98 H98        23.4509   -3.6030   -2.4922 H         1 UNK         0.0793 
     99 H99        25.2359   -1.7801   -2.0719 H         1 UNK         0.3024 
    100 H100       25.9975    1.2307   -0.9180 H         1 UNK         0.1171 
    101 H101       25.7929    0.6976    1.5127 H         1 UNK         0.0786 
    102 H102       24.5436   -0.4982    1.1625 H         1 UNK         0.0786 
    103 H103       24.2461    1.2083    0.8615 H         1 UNK         0.0786 
    104 H104       26.5676   -1.4344    0.1244 H         1 UNK         0.2977 
    105 H105       26.5047    0.4871   -5.4448 H         1 UNK         0.3127 
    106 H106       28.6292    2.3451   -5.4558 H         1 UNK         0.0770 
    107 H107       25.6409    2.7643   -4.9022 H         1 UNK         0.0814 
    108 H108       26.9274    3.8720   -4.4385 H         1 UNK         0.0814 
    109 H109       26.8513    2.2698   -3.7209 H         1 UNK         0.0814 
    110 H110       26.1464    1.8251   -7.8655 H         1 UNK         0.2983 
    111 H111       26.8874    4.3424   -9.3115 H         1 UNK         0.0947 
    112 H112       24.8303    3.8940  -10.6398 H         1 UNK         0.0806 
    113 H113       24.4502    4.0637   -8.9336 H         1 UNK         0.0806 
    114 H114       24.4886    2.4646   -9.6732 H         1 UNK         0.0806 
    115 H115       26.4639    0.7843   -9.6623 H         1 UNK         0.3000 
    116 H116       27.2843    0.7265  -12.3883 H         1 UNK         0.0850 
    117 H117       27.1292   -1.7439  -12.0851 H         1 UNK         0.0810 
    118 H118       25.7365   -0.9319  -11.3873 H         1 UNK         0.0810 
    119 H119       27.0174   -1.5398  -10.3420 H         1 UNK         0.0810 
    120 H120       29.1126    0.1134   -9.3780 H         1 UNK         0.3040 
    121 H121       31.5773   -0.5022  -10.9771 H         1 UNK         0.0766 
    122 H122       32.2121   -1.9778   -9.1344 H         1 UNK         0.0812 
    123 H123       30.7979   -1.5231   -8.1920 H         1 UNK         0.0812 
    124 H124       30.6146   -2.4497   -9.6822 H         1 UNK         0.0812 
    125 H125       30.1698    1.3586   -8.3664 H         1 UNK         0.3205 
    126 H126       30.6828    3.2428   -7.3773 H         1 UNK         0.0754 
    127 H127       32.6396    4.6419   -7.8597 H         1 UNK         0.0769 
    128 H128       31.9194    4.1008   -9.3678 H         1 UNK         0.0769 
    129 H129       33.4047    3.3557   -8.7749 H         1 UNK         0.0769 
    130 H130       33.1447    0.7062   -7.3359 H         1 UNK         0.2981 
    131 H131       34.0977    1.2526   -4.6803 H         1 UNK         0.0541 
    132 H132       33.8467   -0.2957   -2.7997 H         1 UNK         0.3459 
    133 H133       32.2493   -0.9378   -2.5178 H         1 UNK         0.3459 
    134 H134       35.1043   -1.0478   -4.8124 H         1 UNK         0.0612 
    135 H135       35.5510    0.0107   -6.1085 H         1 UNK         0.0612 
    136 H136       34.5069   -4.1214   -6.7371 H         1 UNK         0.0624 
    137 H137       35.0132   -3.3134   -5.2813 H         1 UNK         0.0624 
@<TRIPOS>BOND
     1    1    2 1    
     2    1   72 1    
     3    1   73 1    
     4    1   74 1    
     5    2    3 2    
     6    2    4 am   BACKBONE|DICT|INTERRES
     7    4    5 1    
     8    4   75 1    
     9    5    6 1    
    10    5   35 1    
    11    5   76 1    
    12    6    7 1    
    13    6   77 1    
    14    6   78 1    
    15    7    8 1    
    16    8    9 1    
    17    8   79 1    
    18    8   80 1    
    19    9   10 ar   
    20    9   14 ar   
    21   10   11 ar   
    22   10   81 1    
    23   11   12 ar   
    24   11   71 1    
    25   12   13 ar   
    26   12   82 1    
    27   13   14 ar   
    28   13   15 1    
    29   14   83 1    
    30   15   16 1    
    31   15   84 1    
    32   15   85 1    
    33   16   17 1    
    34   17   18 1    
    35   17   86 1    
    36   17   87 1    
    37   18   19 1    
    38   18   37 1    
    39   18   88 1    
    40   19   20 am   BACKBONE|DICT|INTERRES
    41   19   89 1    
    42   20   21 2    
    43   20   22 1    
    44   22   23 1    
    45   22   24 1    
    46   22   90 1    
    47   23   91 1    
    48   23   92 1    
    49   23   93 1    
    50   24   25 am   BACKBONE|DICT|INTERRES
    51   24   94 1    
    52   25   26 2    
    53   25   27 1    
    54   27   28 1    
    55   27   29 1    
    56   27   95 1    
    57   28   96 1    
    58   28   97 1    
    59   28   98 1    
    60   29   30 am   BACKBONE|DICT|INTERRES
    61   29   99 1    
    62   30   31 2    
    63   30   32 1    
    64   32   33 1    
    65   32   34 1    
    66   32  100 1    
    67   33  101 1    
    68   33  102 1    
    69   33  103 1    
    70   34   35 am   BACKBONE|DICT|INTERRES
    71   34  104 1    
    72   35   36 2    
    73   37   38 2    
    74   37   39 am   BACKBONE|DICT|INTERRES
    75   39   40 1    
    76   39  105 1    
    77   40   41 1    
    78   40   42 1    
    79   40  106 1    
    80   41  107 1    
    81   41  108 1    
    82   41  109 1    
    83   42   43 2    
    84   42   44 am   BACKBONE|DICT|INTERRES
    85   44   45 1    
    86   44  110 1    
    87   45   46 1    
    88   45   47 1    
    89   45  111 1    
    90   46  112 1    
    91   46  113 1    
    92   46  114 1    
    93   47   48 2    
    94   47   49 am   BACKBONE|DICT|INTERRES
    95   49   50 1    
    96   49  115 1    
    97   50   51 1    
    98   50   52 1    
    99   50  116 1    
   100   51  117 1    
   101   51  118 1    
   102   51  119 1    
   103   52   53 2    
   104   52   54 am   BACKBONE|DICT|INTERRES
   105   54   55 1    
   106   54  120 1    
   107   55   56 1    
   108   55   57 1    
   109   55  121 1    
   110   56  122 1    
   111   56  123 1    
   112   56  124 1    
   113   57   58 2    
   114   57   59 am   BACKBONE|DICT|INTERRES
   115   59   60 1    
   116   59  125 1    
   117   60   61 1    
   118   60   62 1    
   119   60  126 1    
   120   61  127 1    
   121   61  128 1    
   122   61  129 1    
   123   62   63 2    
   124   62   64 am   BACKBONE|DICT|INTERRES
   125   64   65 1    
   126   64  130 1    
   127   65   66 1    
   128   65   69 1    
   129   65  131 1    
   130   66   67 am   BACKBONE|DICT|INTERRES
   131   66   68 2    
   132   67  132 1    
   133   67  133 1    
   134   69   70 1    
   135   69  134 1    
   136   69  135 1    
   137   70   71 1    
   138   71  136 1    
   139   71  137 1    
@<TRIPOS>SUBSTRUCTURE
     1 UNK         1 GROUP             0       ****    0 ROOT    
