@<TRIPOS>MOLECULE
3R137
137   139    1
SMALL
USER_CHARGES


@<TRIPOS>ATOM
      1 CA         26.4854   -4.6184    2.2112 C.3       0 UNK        -0.2020 
      2 C          26.5146   -4.7029    0.6925 C.2       0 UNK         0.4855 
      3 O          25.8862   -5.5942    0.1214 O.2       0 UNK        -0.5197 
      4 N          27.2348   -3.7767    0.0429 N.am      1 UNK        -0.4892 
      5 CA         27.4148   -3.6753   -1.4158 C.3       1 UNK         0.0835 
      6 C6         28.2197   -4.8554   -2.0314 C.3       12 UNK        -0.0855 
      7 S7         29.8691   -5.0434   -1.2623 S.3       12 UNK        -0.2931 
      8 C8         31.0084   -4.4699   -2.5769 C.3       12 UNK         0.0378 
      9 C9         30.9911   -2.9680   -2.8777 C.ar      12 UNK        -0.0802 
     10 C10        31.5125   -2.5226   -4.0964 C.ar      12 UNK        -0.0944 
     11 C11        31.5344   -1.1603   -4.4151 C.ar      12 UNK        -0.0787 
     12 C12        30.9842   -0.2359   -3.5238 C.ar      12 UNK        -0.0862 
     13 C13        30.4477   -0.6635   -2.3071 C.ar      12 UNK        -0.0733 
     14 C14        30.5003   -2.0201   -1.9719 C.ar      12 UNK        -0.0832 
     15 C15        29.8010    0.3256   -1.3485 C.3       12 UNK         0.0240 
     16 S16        28.0038    0.0390   -1.2400 S.3       12 UNK        -0.2522 
     17 C17        27.2991    1.3510   -2.2911 C.3       12 UNK        -0.0967 
     18 CA         27.6254    1.2559   -3.8047 C.3       5 UNK         0.0660 
     19 N          27.3674   -0.0634   -4.3890 N.am      5 UNK        -0.4015 
     20 C          27.8192   -0.4557   -5.5909 C.2       4 UNK         0.4946 
     21 O          28.5344    0.2357   -6.3163 O.2       4 UNK        -0.5353 
     22 CA         27.3631   -1.8342   -6.0953 C.3       4 UNK         0.0277 
     23 CB         28.2801   -2.9347   -5.5455 C.3       4 UNK        -0.1981 
     24 N          25.9669   -2.1236   -5.7568 N.am      4 UNK        -0.4209 
     25 C          24.9254   -1.4606   -6.2846 C.2       3 UNK         0.4942 
     26 O          25.0414   -0.5753   -7.1294 O.2       3 UNK        -0.5208 
     27 CA         23.5196   -1.7929   -5.7571 C.3       3 UNK         0.0250 
     28 CB         22.8787   -2.9048   -6.6020 C.3       3 UNK        -0.1990 
     29 N          23.4916   -2.1758   -4.3454 N.am      3 UNK        -0.4232 
     30 C          23.9574   -1.4408   -3.3263 C.2       2 UNK         0.4993 
     31 O          24.4548   -0.3199   -3.4568 O.2       2 UNK        -0.5286 
     32 CA         23.9183   -2.0896   -1.9322 C.3       2 UNK         0.0209 
     33 CB         22.9001   -3.2456   -1.8045 C.3       2 UNK        -0.1931 
     34 N          25.2469   -2.5415   -1.5040 N.am      2 UNK        -0.4546 
     35 C          26.0942   -3.3601   -2.1521 C.2       1 UNK         0.5154 
     36 O          25.8799   -3.8298   -3.2723 O.2       1 UNK        -0.5181 
     37 C          26.8590    2.3504   -4.5692 C.2       5 UNK         0.5014 
     38 O          27.4181    3.4190   -4.8176 O.2       5 UNK        -0.5248 
     39 N          25.5972    2.0599   -4.9236 N.am      6 UNK        -0.4434 
     40 CA         24.7223    2.9490   -5.6896 C.3       6 UNK         0.0363 
     41 CB         23.2936    2.3828   -5.7038 C.3       6 UNK        -0.1936 
     42 C          25.2274    3.1950   -7.1214 C.2       6 UNK         0.5081 
     43 O          25.2226    4.3407   -7.5728 O.2       6 UNK        -0.5248 
     44 N          25.6567    2.1253   -7.8061 N.am      7 UNK        -0.4718 
     45 CA         26.2185    2.1856   -9.1561 C.3       7 UNK         0.0273 
     46 CB         26.2445    0.7771   -9.7722 C.3       7 UNK        -0.1935 
     47 C          27.6245    2.7999   -9.1912 C.2       7 UNK         0.5018 
     48 O          27.9366    3.5179  -10.1420 O.2       7 UNK        -0.5186 
     49 N          28.4585    2.4720   -8.1910 N.am      8 UNK        -0.4240 
     50 CA         29.8724    2.8368   -8.0070 C.3       8 UNK         0.0235 
     51 CB         30.0627    4.3620   -7.9059 C.3       8 UNK        -0.2000 
     52 C          30.8219    2.2180   -9.0495 C.2       8 UNK         0.4941 
     53 O          31.8643    1.6840   -8.6728 O.2       8 UNK        -0.5273 
     54 N          30.4246    2.2392  -10.3290 N.am      9 UNK        -0.4262 
     55 CA         31.1226    1.6749  -11.4912 C.3       9 UNK         0.0264 
     56 CB         30.3498    2.0625  -12.7631 C.3       9 UNK        -0.1955 
     57 C          31.3523    0.1505  -11.4414 C.2       9 UNK         0.5031 
     58 O          32.1140   -0.3677  -12.2591 O.2       9 UNK        -0.5390 
     59 N          30.7163   -0.5390  -10.4834 N.am      10 UNK        -0.4204 
     60 CA         30.9945   -1.9276  -10.1127 C.3       10 UNK         0.0237 
     61 CB         29.9436   -2.3907   -9.0889 C.3       10 UNK        -0.1985 
     62 C          32.4192   -2.1269   -9.5561 C.2       10 UNK         0.4970 
     63 O          32.9767   -3.2129   -9.7175 O.2       10 UNK        -0.4914 
     64 N          32.9801   -1.0850   -8.9283 N.am      11 UNK        -0.4285 
     65 CA         34.3732   -1.0251   -8.4788 C.3       11 UNK         0.1007 
     66 C          35.2755   -0.5083   -9.6290 C.2       11 UNK         0.5703 
     67 N          36.4069   -1.1560   -9.8721 N.am      11 UNK        -0.7361 
     68 O          34.9807    0.4960  -10.2743 O.2       11 UNK        -0.4986 
     69 C69        34.5090   -0.1318   -7.2189 C.3       12 UNK        -0.0947 
     70 S70        33.9575   -0.9769   -5.7033 S.3       12 UNK        -0.2240 
     71 C71        32.1596   -0.6911   -5.7193 C.3       12 UNK         0.0194 
     72 H72        25.4613   -4.4891    2.5602 H         1 UNK         0.0906 
     73 H73        26.8797   -5.5371    2.6447 H         1 UNK         0.0906 
     74 H74        27.0794   -3.7853    2.5867 H         1 UNK         0.0906 
     75 H75        27.7280   -3.0793    0.5836 H         1 UNK         0.3140 
     76 H76        28.0027   -2.7785   -1.5805 H         1 UNK         0.1085 
     77 H77        28.3471   -4.7287   -3.1064 H         1 UNK         0.0836 
     78 H78        27.6736   -5.7920   -1.9089 H         1 UNK         0.0836 
     79 H79        30.7919   -5.0302   -3.4879 H         1 UNK         0.0731 
     80 H80        32.0237   -4.7422   -2.2856 H         1 UNK         0.0731 
     81 H81        31.9247   -3.2364   -4.7968 H         1 UNK         0.1312 
     82 H82        30.9773    0.8148   -3.7779 H         1 UNK         0.1406 
     83 H83        30.1290   -2.3312   -1.0064 H         1 UNK         0.1631 
     84 H84        30.0026    1.3565   -1.6434 H         1 UNK         0.0717 
     85 H85        30.2384    0.1992   -0.3572 H         1 UNK         0.0717 
     86 H86        26.2186    1.3255   -2.1339 H         1 UNK         0.0934 
     87 H87        27.6307    2.3134   -1.8959 H         1 UNK         0.0934 
     88 H88        28.6883    1.4663   -3.9308 H         1 UNK         0.0739 
     89 H89        26.7302   -0.6588   -3.8798 H         1 UNK         0.3093 
     90 H90        27.4465   -1.8361   -7.1843 H         1 UNK         0.0818 
     91 H91        28.3453   -2.8913   -4.4589 H         1 UNK         0.0819 
     92 H92        27.9342   -3.9289   -5.8282 H         1 UNK         0.0819 
     93 H93        29.2926   -2.8201   -5.9332 H         1 UNK         0.0819 
     94 H94        25.7969   -2.8226   -5.0392 H         1 UNK         0.3041 
     95 H95        22.9100   -0.8937   -5.8594 H         1 UNK         0.0784 
     96 H96        22.8670   -2.6335   -7.6588 H         1 UNK         0.0793 
     97 H97        23.4239   -3.8454   -6.5128 H         1 UNK         0.0793 
     98 H98        21.8453   -3.0847   -6.3048 H         1 UNK         0.0793 
     99 H99        23.1449   -3.1007   -4.1358 H         1 UNK         0.3024 
    100 H100       23.6128   -1.3001   -1.2433 H         1 UNK         0.1171 
    101 H101       22.8184   -3.5753   -0.7685 H         1 UNK         0.0786 
    102 H102       21.9030   -2.9324   -2.1176 H         1 UNK         0.0786 
    103 H103       23.1809   -4.1163   -2.3984 H         1 UNK         0.0786 
    104 H104       25.5515   -2.1905   -0.6067 H         1 UNK         0.2977 
    105 H105       25.2037    1.1728   -4.6235 H         1 UNK         0.3127 
    106 H106       24.6998    3.9120   -5.1749 H         1 UNK         0.0770 
    107 H107       23.2418    1.4327   -6.2351 H         1 UNK         0.0814 
    108 H108       22.6090    3.0704   -6.2019 H         1 UNK         0.0814 
    109 H109       22.9171    2.2239   -4.6931 H         1 UNK         0.0814 
    110 H110       25.5586    1.1990   -7.3945 H         1 UNK         0.2983 
    111 H111       25.5679    2.8134   -9.7692 H         1 UNK         0.0947 
    112 H112       26.6447    0.7995  -10.7868 H         1 UNK         0.0806 
    113 H113       25.2420    0.3524   -9.8289 H         1 UNK         0.0806 
    114 H114       26.8632    0.0923   -9.1904 H         1 UNK         0.0806 
    115 H115       28.1183    1.8129   -7.4962 H         1 UNK         0.3000 
    116 H116       30.1544    2.4106   -7.0425 H         1 UNK         0.0850 
    117 H117       31.0969    4.6076   -7.6612 H         1 UNK         0.0810 
    118 H118       29.4340    4.7850   -7.1220 H         1 UNK         0.0810 
    119 H119       29.8221    4.8702   -8.8399 H         1 UNK         0.0810 
    120 H120       29.5446    2.7166  -10.5152 H         1 UNK         0.3040 
    121 H121       32.1099    2.1393  -11.5319 H         1 UNK         0.0766 
    122 H122       30.8555    1.6963  -13.6577 H         1 UNK         0.0812 
    123 H123       30.2652    3.1449  -12.8622 H         1 UNK         0.0812 
    124 H124       29.3417    1.6457  -12.7635 H         1 UNK         0.0812 
    125 H125       30.1013   -0.0224   -9.8728 H         1 UNK         0.3205 
    126 H126       30.9011   -2.5424  -11.0103 H         1 UNK         0.0754 
    127 H127       29.9523   -1.7702   -8.1920 H         1 UNK         0.0769 
    128 H128       30.1269   -3.4198   -8.7765 H         1 UNK         0.0769 
    129 H129       28.9383   -2.3557   -9.5092 H         1 UNK         0.0769 
    130 H130       32.4817   -0.2013   -8.8877 H         1 UNK         0.2981 
    131 H131       34.7057   -2.0319   -8.2168 H         1 UNK         0.0541 
    132 H132       36.6650   -1.9733   -9.3411 H         1 UNK         0.3459 
    133 H133       37.0127   -0.8238  -10.6062 H         1 UNK         0.3459 
    134 H134       33.9761    0.8130   -7.3347 H         1 UNK         0.0612 
    135 H135       35.5545    0.1349   -7.0523 H         1 UNK         0.0612 
    136 H136       31.7049   -1.2368   -6.5451 H         1 UNK         0.0624 
    137 H137       31.9578    0.3673   -5.8923 H         1 UNK         0.0624 
@<TRIPOS>BOND
     1    1    2 1    
     2    1   72 1    
     3    1   73 1    
     4    1   74 1    
     5    2    3 2    
     6    2    4 am   BACKBONE|DICT|INTERRES
     7    4    5 1    
     8    4   75 1    
     9    5    6 1    
    10    5   35 1    
    11    5   76 1    
    12    6    7 1    
    13    6   77 1    
    14    6   78 1    
    15    7    8 1    
    16    8    9 1    
    17    8   79 1    
    18    8   80 1    
    19    9   10 ar   
    20    9   14 ar   
    21   10   11 ar   
    22   10   81 1    
    23   11   12 ar   
    24   11   71 1    
    25   12   13 ar   
    26   12   82 1    
    27   13   14 ar   
    28   13   15 1    
    29   14   83 1    
    30   15   16 1    
    31   15   84 1    
    32   15   85 1    
    33   16   17 1    
    34   17   18 1    
    35   17   86 1    
    36   17   87 1    
    37   18   19 1    
    38   18   37 1    
    39   18   88 1    
    40   19   20 am   BACKBONE|DICT|INTERRES
    41   19   89 1    
    42   20   21 2    
    43   20   22 1    
    44   22   23 1    
    45   22   24 1    
    46   22   90 1    
    47   23   91 1    
    48   23   92 1    
    49   23   93 1    
    50   24   25 am   BACKBONE|DICT|INTERRES
    51   24   94 1    
    52   25   26 2    
    53   25   27 1    
    54   27   28 1    
    55   27   29 1    
    56   27   95 1    
    57   28   96 1    
    58   28   97 1    
    59   28   98 1    
    60   29   30 am   BACKBONE|DICT|INTERRES
    61   29   99 1    
    62   30   31 2    
    63   30   32 1    
    64   32   33 1    
    65   32   34 1    
    66   32  100 1    
    67   33  101 1    
    68   33  102 1    
    69   33  103 1    
    70   34   35 am   BACKBONE|DICT|INTERRES
    71   34  104 1    
    72   35   36 2    
    73   37   38 2    
    74   37   39 am   BACKBONE|DICT|INTERRES
    75   39   40 1    
    76   39  105 1    
    77   40   41 1    
    78   40   42 1    
    79   40  106 1    
    80   41  107 1    
    81   41  108 1    
    82   41  109 1    
    83   42   43 2    
    84   42   44 am   BACKBONE|DICT|INTERRES
    85   44   45 1    
    86   44  110 1    
    87   45   46 1    
    88   45   47 1    
    89   45  111 1    
    90   46  112 1    
    91   46  113 1    
    92   46  114 1    
    93   47   48 2    
    94   47   49 am   BACKBONE|DICT|INTERRES
    95   49   50 1    
    96   49  115 1    
    97   50   51 1    
    98   50   52 1    
    99   50  116 1    
   100   51  117 1    
   101   51  118 1    
   102   51  119 1    
   103   52   53 2    
   104   52   54 am   BACKBONE|DICT|INTERRES
   105   54   55 1    
   106   54  120 1    
   107   55   56 1    
   108   55   57 1    
   109   55  121 1    
   110   56  122 1    
   111   56  123 1    
   112   56  124 1    
   113   57   58 2    
   114   57   59 am   BACKBONE|DICT|INTERRES
   115   59   60 1    
   116   59  125 1    
   117   60   61 1    
   118   60   62 1    
   119   60  126 1    
   120   61  127 1    
   121   61  128 1    
   122   61  129 1    
   123   62   63 2    
   124   62   64 am   BACKBONE|DICT|INTERRES
   125   64   65 1    
   126   64  130 1    
   127   65   66 1    
   128   65   69 1    
   129   65  131 1    
   130   66   67 am   BACKBONE|DICT|INTERRES
   131   66   68 2    
   132   67  132 1    
   133   67  133 1    
   134   69   70 1    
   135   69  134 1    
   136   69  135 1    
   137   70   71 1    
   138   71  136 1    
   139   71  137 1    
@<TRIPOS>SUBSTRUCTURE
     1 UNK         1 GROUP             0       ****    0 ROOT    
