@<TRIPOS>MOLECULE
3R137
137   139    1
SMALL
USER_CHARGES


@<TRIPOS>ATOM
      1 CA         25.7216   -3.6007    2.2168 C.3       0 UNK        -0.2020 
      2 C          26.4604   -2.7262    1.2152 C.2       0 UNK         0.4855 
      3 O          26.1067   -2.7274    0.0378 O.2       0 UNK        -0.5197 
      4 N          27.4569   -1.9644    1.6894 N.am      1 UNK        -0.4892 
      5 CA         28.3979   -1.0745    0.9804 C.3       1 UNK         0.0835 
      6 C6         29.4528   -1.8359    0.1249 C.3       12 UNK        -0.0855 
      7 S7         28.9522   -2.3143   -1.5670 S.3       12 UNK        -0.2931 
      8 C8         30.1411   -3.6481   -1.9078 C.3       12 UNK         0.0378 
      9 C9         30.2678   -3.9210   -3.4006 C.ar      12 UNK        -0.0802 
     10 C10        31.3880   -3.4696   -4.1067 C.ar      12 UNK        -0.0944 
     11 C11        31.5282   -3.7439   -5.4708 C.ar      12 UNK        -0.0787 
     12 C12        30.5249   -4.4588   -6.1355 C.ar      12 UNK        -0.0862 
     13 C13        29.4043   -4.9243   -5.4390 C.ar      12 UNK        -0.0733 
     14 C14        29.2806   -4.6486   -4.0727 C.ar      12 UNK        -0.0832 
     15 C15        28.3631   -5.7926   -6.1330 C.3       12 UNK         0.0240 
     16 S16        26.8095   -4.9008   -6.4576 S.3       12 UNK        -0.2522 
     17 C17        26.9778   -4.4015   -8.2104 C.3       12 UNK        -0.0967 
     18 CA         26.6457   -2.9113   -8.4816 C.3       5 UNK         0.0660 
     19 N          25.3896   -2.4897   -7.8549 N.am      5 UNK        -0.4015 
     20 C          24.7767   -1.3157   -8.0611 C.2       4 UNK         0.4946 
     21 O          25.1560   -0.4759   -8.8764 O.2       4 UNK        -0.5353 
     22 CA         23.5651   -1.0032   -7.1659 C.3       4 UNK         0.0277 
     23 CB         22.2817   -1.6034   -7.7616 C.3       4 UNK        -0.1981 
     24 N          23.7332   -1.4626   -5.7815 N.am      4 UNK        -0.4209 
     25 C          24.6943   -1.0301   -4.9532 C.2       3 UNK         0.4942 
     26 O          25.5462   -0.1990   -5.2747 O.2       3 UNK        -0.5208 
     27 CA         24.7440   -1.6890   -3.5641 C.3       3 UNK         0.0250 
     28 CB         25.4828   -3.0350   -3.6360 C.3       3 UNK        -0.1990 
     29 N          25.4120   -0.8535   -2.5665 N.am      3 UNK        -0.4232 
     30 C          24.9394    0.3021   -2.0784 C.2       2 UNK         0.4993 
     31 O          23.8575    0.7911   -2.4100 O.2       2 UNK        -0.5286 
     32 CA         25.8029    1.0032   -1.0146 C.3       2 UNK         0.0209 
     33 CB         24.9844    1.9088   -0.0733 C.3       2 UNK        -0.1931 
     34 N          26.5391    0.0129   -0.2295 N.am      2 UNK        -0.4546 
     35 C          27.7787    0.1425    0.2487 C.2       1 UNK         0.5154 
     36 O          28.4375    1.1787    0.1438 O.2       1 UNK        -0.5181 
     37 C          27.8195   -1.9872   -8.1095 C.2       5 UNK         0.5014 
     38 O          28.5753   -1.5896   -8.9963 O.2       5 UNK        -0.5248 
     39 N          27.9199   -1.6301   -6.8217 N.am      6 UNK        -0.4434 
     40 CA         28.9287   -0.7160   -6.2915 C.3       6 UNK         0.0363 
     41 CB         28.8734   -0.7037   -4.7592 C.3       6 UNK        -0.1936 
     42 C          28.7805    0.7023   -6.8492 C.2       6 UNK         0.5081 
     43 O          29.7837    1.3093   -7.2198 O.2       6 UNK        -0.5248 
     44 N          27.5341    1.1864   -6.9312 N.am      7 UNK        -0.4718 
     45 CA         27.1811    2.4705   -7.5355 C.3       7 UNK         0.0273 
     46 CB         25.7004    2.7784   -7.2616 C.3       7 UNK        -0.1935 
     47 C          27.4864    2.5202   -9.0423 C.2       7 UNK         0.5018 
     48 O          28.0514    3.5108   -9.5062 O.2       7 UNK        -0.5186 
     49 N          27.1296    1.4520   -9.7709 N.am      8 UNK        -0.4240 
     50 CA         27.3649    1.3111  -11.2100 C.3       8 UNK         0.0235 
     51 CB         26.5916    0.0964  -11.7484 C.3       8 UNK        -0.2000 
     52 C          28.8548    1.2089  -11.5734 C.2       8 UNK         0.4941 
     53 O          29.2968    1.8929  -12.4974 O.2       8 UNK        -0.5273 
     54 N          29.6012    0.3637  -10.8489 N.am      9 UNK        -0.4262 
     55 CA         31.0337    0.1409  -11.0682 C.3       9 UNK         0.0264 
     56 CB         31.4112   -1.2465  -10.5274 C.3       9 UNK        -0.1955 
     57 C          31.9345    1.2291  -10.4542 C.2       9 UNK         0.5031 
     58 O          33.1172    1.2751  -10.7964 O.2       9 UNK        -0.5390 
     59 N          31.3763    2.0673   -9.5674 N.am      10 UNK        -0.4204 
     60 CA         32.0411    3.1087   -8.7745 C.3       10 UNK         0.0237 
     61 CB         32.6098    4.2262   -9.6756 C.3       10 UNK        -0.1985 
     62 C          33.0772    2.5135   -7.8009 C.2       10 UNK         0.4970 
     63 O          34.2195    2.9745   -7.7479 O.2       10 UNK        -0.4914 
     64 N          32.6526    1.4822   -7.0612 N.am      11 UNK        -0.4285 
     65 CA         33.4513    0.7865   -6.0420 C.3       11 UNK         0.1007 
     66 C          33.7244    1.6753   -4.7981 C.2       11 UNK         0.5703 
     67 N          34.8643    1.4922   -4.1452 N.am      11 UNK        -0.7361 
     68 O          32.9017    2.4971   -4.3972 O.2       11 UNK        -0.4986 
     69 C69        32.8007   -0.5577   -5.6236 C.3       12 UNK        -0.0947 
     70 S70        32.6430   -1.7147   -7.0238 S.3       12 UNK        -0.2240 
     71 C71        32.7962   -3.3327   -6.2094 C.3       12 UNK         0.0194 
     72 H72        24.6668   -3.3284    2.2454 H         1 UNK         0.0906 
     73 H73        25.7948   -4.6474    1.9231 H         1 UNK         0.0906 
     74 H74        26.1253   -3.5025    3.2243 H         1 UNK         0.0906 
     75 H75        27.6256   -2.0044    2.6856 H         1 UNK         0.3140 
     76 H76        28.9610   -0.6213    1.7985 H         1 UNK         0.1085 
     77 H77        29.7811   -2.7274    0.6619 H         1 UNK         0.0836 
     78 H78        30.3448   -1.2147    0.0251 H         1 UNK         0.0836 
     79 H79        31.1143   -3.3803   -1.4930 H         1 UNK         0.0731 
     80 H80        29.8241   -4.5541   -1.3893 H         1 UNK         0.0731 
     81 H81        32.1630   -2.9207   -3.5896 H         1 UNK         0.1312 
     82 H82        30.6358   -4.6824   -7.1877 H         1 UNK         0.1406 
     83 H83        28.4185   -5.0097   -3.5280 H         1 UNK         0.1631 
     84 H84        28.1366   -6.6458   -5.4920 H         1 UNK         0.0717 
     85 H85        28.7585   -6.2174   -7.0567 H         1 UNK         0.0717 
     86 H86        27.9749   -4.6456   -8.5825 H         1 UNK         0.0934 
     87 H87        26.2963   -5.0278   -8.7882 H         1 UNK         0.0934 
     88 H88        26.5055   -2.8045   -9.5596 H         1 UNK         0.0739 
     89 H89        25.0120   -3.1199   -7.1627 H         1 UNK         0.3093 
     90 H90        23.4523    0.0828   -7.1394 H         1 UNK         0.0818 
     91 H91        21.4021   -1.3064   -7.1902 H         1 UNK         0.0819 
     92 H92        22.1306   -1.2593   -8.7859 H         1 UNK         0.0819 
     93 H93        22.3152   -2.6934   -7.7859 H         1 UNK         0.0819 
     94 H94        23.0723   -2.1494   -5.4465 H         1 UNK         0.3041 
     95 H95        23.7209   -1.8638   -3.2249 H         1 UNK         0.0784 
     96 H96        24.9845   -3.7235   -4.3189 H         1 UNK         0.0793 
     97 H97        26.5115   -2.9142   -3.9791 H         1 UNK         0.0793 
     98 H98        25.5159   -3.5210   -2.6603 H         1 UNK         0.0793 
     99 H99        26.3087   -1.1831   -2.2359 H         1 UNK         0.3024 
    100 H100       26.5122    1.6259   -1.5648 H         1 UNK         0.1171 
    101 H101       24.4614    2.6865   -0.6313 H         1 UNK         0.0786 
    102 H102       25.6258    2.4101    0.6517 H         1 UNK         0.0786 
    103 H103       24.2356    1.3391    0.4781 H         1 UNK         0.0786 
    104 H104       26.1122   -0.9082   -0.1379 H         1 UNK         0.2977 
    105 H105       27.2360   -1.9804   -6.1682 H         1 UNK         0.3127 
    106 H106       29.9015   -1.0989   -6.5977 H         1 UNK         0.0770 
    107 H107       29.6710   -0.0919   -4.3381 H         1 UNK         0.0814 
    108 H108       28.9924   -1.7102   -4.3680 H         1 UNK         0.0814 
    109 H109       27.9332   -0.3075   -4.3786 H         1 UNK         0.0814 
    110 H110       26.7755    0.6312   -6.5425 H         1 UNK         0.2983 
    111 H111       27.7852    3.2406   -7.0508 H         1 UNK         0.0947 
    112 H112       25.4228    3.7519   -7.6676 H         1 UNK         0.0806 
    113 H113       25.4919    2.8000   -6.1916 H         1 UNK         0.0806 
    114 H114       25.0424    2.0359   -7.7136 H         1 UNK         0.0806 
    115 H115       26.6158    0.6998   -9.3173 H         1 UNK         0.3000 
    116 H116       26.9688    2.2046  -11.6975 H         1 UNK         0.0850 
    117 H117       26.7494   -0.0254  -12.8208 H         1 UNK         0.0810 
    118 H118       25.5189    0.2088  -11.5894 H         1 UNK         0.0810 
    119 H119       26.9045   -0.8290  -11.2633 H         1 UNK         0.0810 
    120 H120       29.1578   -0.2032  -10.1271 H         1 UNK         0.3040 
    121 H121       31.2248    0.1401  -12.1435 H         1 UNK         0.0766 
    122 H122       32.4747   -1.4495  -10.6598 H         1 UNK         0.0812 
    123 H123       30.8618   -2.0353  -11.0413 H         1 UNK         0.0812 
    124 H124       31.1914   -1.3290   -9.4639 H         1 UNK         0.0812 
    125 H125       30.4125    1.8922   -9.3106 H         1 UNK         0.3205 
    126 H126       31.2636    3.5563   -8.1534 H         1 UNK         0.0754 
    127 H127       32.9908    5.0530   -9.0751 H         1 UNK         0.0769 
    128 H128       31.8417    4.6312  -10.3346 H         1 UNK         0.0769 
    129 H129       33.4326    3.8717  -10.2969 H         1 UNK         0.0769 
    130 H130       31.6737    1.2175   -7.1287 H         1 UNK         0.2981 
    131 H131       34.4175    0.5602   -6.4977 H         1 UNK         0.0541 
    132 H132       35.5423    0.8146   -4.4576 H         1 UNK         0.3459 
    133 H133       35.0542    2.0494   -3.3270 H         1 UNK         0.3459 
    134 H134       31.8139   -0.3925   -5.1924 H         1 UNK         0.0612 
    135 H135       33.3985   -1.0371   -4.8466 H         1 UNK         0.0612 
    136 H136       33.6502   -3.3242   -5.5306 H         1 UNK         0.0624 
    137 H137       33.0291   -4.0780   -6.9712 H         1 UNK         0.0624 
@<TRIPOS>BOND
     1    1    2 1    
     2    1   72 1    
     3    1   73 1    
     4    1   74 1    
     5    2    3 2    
     6    2    4 am   BACKBONE|DICT|INTERRES
     7    4    5 1    
     8    4   75 1    
     9    5    6 1    
    10    5   35 1    
    11    5   76 1    
    12    6    7 1    
    13    6   77 1    
    14    6   78 1    
    15    7    8 1    
    16    8    9 1    
    17    8   79 1    
    18    8   80 1    
    19    9   10 ar   
    20    9   14 ar   
    21   10   11 ar   
    22   10   81 1    
    23   11   12 ar   
    24   11   71 1    
    25   12   13 ar   
    26   12   82 1    
    27   13   14 ar   
    28   13   15 1    
    29   14   83 1    
    30   15   16 1    
    31   15   84 1    
    32   15   85 1    
    33   16   17 1    
    34   17   18 1    
    35   17   86 1    
    36   17   87 1    
    37   18   19 1    
    38   18   37 1    
    39   18   88 1    
    40   19   20 am   BACKBONE|DICT|INTERRES
    41   19   89 1    
    42   20   21 2    
    43   20   22 1    
    44   22   23 1    
    45   22   24 1    
    46   22   90 1    
    47   23   91 1    
    48   23   92 1    
    49   23   93 1    
    50   24   25 am   BACKBONE|DICT|INTERRES
    51   24   94 1    
    52   25   26 2    
    53   25   27 1    
    54   27   28 1    
    55   27   29 1    
    56   27   95 1    
    57   28   96 1    
    58   28   97 1    
    59   28   98 1    
    60   29   30 am   BACKBONE|DICT|INTERRES
    61   29   99 1    
    62   30   31 2    
    63   30   32 1    
    64   32   33 1    
    65   32   34 1    
    66   32  100 1    
    67   33  101 1    
    68   33  102 1    
    69   33  103 1    
    70   34   35 am   BACKBONE|DICT|INTERRES
    71   34  104 1    
    72   35   36 2    
    73   37   38 2    
    74   37   39 am   BACKBONE|DICT|INTERRES
    75   39   40 1    
    76   39  105 1    
    77   40   41 1    
    78   40   42 1    
    79   40  106 1    
    80   41  107 1    
    81   41  108 1    
    82   41  109 1    
    83   42   43 2    
    84   42   44 am   BACKBONE|DICT|INTERRES
    85   44   45 1    
    86   44  110 1    
    87   45   46 1    
    88   45   47 1    
    89   45  111 1    
    90   46  112 1    
    91   46  113 1    
    92   46  114 1    
    93   47   48 2    
    94   47   49 am   BACKBONE|DICT|INTERRES
    95   49   50 1    
    96   49  115 1    
    97   50   51 1    
    98   50   52 1    
    99   50  116 1    
   100   51  117 1    
   101   51  118 1    
   102   51  119 1    
   103   52   53 2    
   104   52   54 am   BACKBONE|DICT|INTERRES
   105   54   55 1    
   106   54  120 1    
   107   55   56 1    
   108   55   57 1    
   109   55  121 1    
   110   56  122 1    
   111   56  123 1    
   112   56  124 1    
   113   57   58 2    
   114   57   59 am   BACKBONE|DICT|INTERRES
   115   59   60 1    
   116   59  125 1    
   117   60   61 1    
   118   60   62 1    
   119   60  126 1    
   120   61  127 1    
   121   61  128 1    
   122   61  129 1    
   123   62   63 2    
   124   62   64 am   BACKBONE|DICT|INTERRES
   125   64   65 1    
   126   64  130 1    
   127   65   66 1    
   128   65   69 1    
   129   65  131 1    
   130   66   67 am   BACKBONE|DICT|INTERRES
   131   66   68 2    
   132   67  132 1    
   133   67  133 1    
   134   69   70 1    
   135   69  134 1    
   136   69  135 1    
   137   70   71 1    
   138   71  136 1    
   139   71  137 1    
@<TRIPOS>SUBSTRUCTURE
     1 UNK         1 GROUP             0       ****    0 ROOT    
