@<TRIPOS>MOLECULE
3R137
137   139    1
SMALL
USER_CHARGES


@<TRIPOS>ATOM
      1 CA         26.7479   -6.3935   -4.2334 C.3       0 UNK        -0.2020 
      2 C          26.6288   -5.9378   -2.7877 C.2       0 UNK         0.4855 
      3 O          25.6695   -6.3066   -2.1100 O.2       0 UNK        -0.5197 
      4 N          27.6032   -5.1541   -2.3051 N.am      1 UNK        -0.4892 
      5 CA         27.6868   -4.6916   -0.9106 C.3       1 UNK         0.0835 
      6 C6         29.0885   -4.1381   -0.5511 C.3       12 UNK        -0.0855 
      7 S7         30.4301   -5.3147   -0.9571 S.3       12 UNK        -0.2931 
      8 C8         31.8350   -4.2155   -1.3460 C.3       12 UNK         0.0378 
      9 C9         31.5043   -3.1976   -2.4296 C.ar      12 UNK        -0.0802 
     10 C10        31.5271   -1.8309   -2.1345 C.ar      12 UNK        -0.0944 
     11 C11        31.1802   -0.8827   -3.1008 C.ar      12 UNK        -0.0787 
     12 C12        30.7880   -1.3218   -4.3706 C.ar      12 UNK        -0.0862 
     13 C13        30.7919   -2.6836   -4.6893 C.ar      12 UNK        -0.0733 
     14 C14        31.1582   -3.6175   -3.7170 C.ar      12 UNK        -0.0832 
     15 C15        30.4172   -3.1412   -6.0908 C.3       12 UNK         0.0240 
     16 S16        28.8286   -4.0308   -6.1559 S.3       12 UNK        -0.2522 
     17 C17        27.6440   -2.8201   -5.4810 C.3       12 UNK        -0.0967 
     18 CA         27.0151   -1.9051   -6.5631 C.3       5 UNK         0.0660 
     19 N          25.6591   -1.4906   -6.1984 N.am      5 UNK        -0.4015 
     20 C          24.7726   -0.9385   -7.0400 C.2       4 UNK         0.4946 
     21 O          24.9771   -0.7827   -8.2434 O.2       4 UNK        -0.5353 
     22 CA         23.4470   -0.4415   -6.4325 C.3       4 UNK         0.0277 
     23 CB         22.3972   -1.5638   -6.4408 C.3       4 UNK        -0.1981 
     24 N          23.5975    0.0776   -5.0696 N.am      4 UNK        -0.4209 
     25 C          24.3252    1.1569   -4.7479 C.2       3 UNK         0.4942 
     26 O          24.8690    1.8800   -5.5807 O.2       3 UNK        -0.5208 
     27 CA         24.5325    1.4560   -3.2516 C.3       3 UNK         0.0250 
     28 CB         23.5036    2.4895   -2.7671 C.3       3 UNK        -0.1990 
     29 N          24.4934    0.2787   -2.3735 N.am      3 UNK        -0.4232 
     30 C          25.2793   -0.8023   -2.4808 C.2       2 UNK         0.4993 
     31 O          26.1058   -0.9644   -3.3841 O.2       2 UNK        -0.5286 
     32 CA         25.0635   -1.9038   -1.4369 C.3       2 UNK         0.0209 
     33 CB         23.7051   -2.6022   -1.6418 C.3       2 UNK        -0.1931 
     34 N          26.1335   -2.8914   -1.5474 N.am      2 UNK        -0.4546 
     35 C          26.5895   -3.6649   -0.5545 C.2       1 UNK         0.5154 
     36 O          26.1716   -3.6032    0.6032 O.2       1 UNK        -0.5181 
     37 C          27.8926   -0.6709   -6.8359 C.2       5 UNK         0.5014 
     38 O          28.6061   -0.6372   -7.8396 O.2       5 UNK        -0.5248 
     39 N          27.7953    0.3358   -5.9535 N.am      6 UNK        -0.4434 
     40 CA         28.4826    1.6220   -6.0813 C.3       6 UNK         0.0363 
     41 CB         28.2358    2.4785   -4.8293 C.3       6 UNK        -0.1936 
     42 C          28.0796    2.3783   -7.3554 C.2       6 UNK         0.5081 
     43 O          28.9567    2.8311   -8.0879 O.2       6 UNK        -0.5248 
     44 N          26.7703    2.4498   -7.6288 N.am      7 UNK        -0.4718 
     45 CA         26.2064    3.0491   -8.8408 C.3       7 UNK         0.0273 
     46 CB         24.6734    3.0666   -8.7325 C.3       7 UNK        -0.1935 
     47 C          26.6467    2.3460  -10.1377 C.2       7 UNK         0.5018 
     48 O          26.8300    3.0200  -11.1522 O.2       7 UNK        -0.5186 
     49 N          26.8060    1.0168  -10.0836 N.am      8 UNK        -0.4240 
     50 CA         27.2471    0.1953  -11.2076 C.3       8 UNK         0.0235 
     51 CB         26.8127   -1.2636  -10.9848 C.3       8 UNK        -0.2000 
     52 C          28.7617    0.2821  -11.4531 C.2       8 UNK         0.4941 
     53 O          29.1693    0.5651  -12.5808 O.2       8 UNK        -0.5273 
     54 N          29.5640   -0.0131  -10.4208 N.am      9 UNK        -0.4262 
     55 CA         30.9957   -0.2987  -10.5637 C.3       9 UNK         0.0264 
     56 CB         31.3054   -1.6026   -9.8090 C.3       9 UNK        -0.1955 
     57 C          31.9275    0.8183  -10.0689 C.2       9 UNK         0.5031 
     58 O          33.1226    0.7395  -10.3555 O.2       9 UNK        -0.5390 
     59 N          31.4087    1.8039   -9.3187 N.am      10 UNK        -0.4204 
     60 CA         32.1621    2.8726   -8.6381 C.3       10 UNK         0.0237 
     61 CB         32.8836    3.7913   -9.6490 C.3       10 UNK        -0.1985 
     62 C          33.0922    2.3647   -7.5130 C.2       10 UNK         0.4970 
     63 O          34.0471    3.0579   -7.1565 O.2       10 UNK        -0.4914 
     64 N          32.7740    1.1877   -6.9551 N.am      11 UNK        -0.4285 
     65 CA         33.4802    0.5139   -5.8506 C.3       11 UNK         0.1007 
     66 C          34.9414    0.1005   -6.2092 C.2       11 UNK         0.5703 
     67 N          35.8051   -0.1306   -5.2283 N.am      11 UNK        -0.7361 
     68 O          35.2917   -0.0740   -7.3747 O.2       11 UNK        -0.4986 
     69 C69        33.3507    1.2697   -4.4906 C.3       12 UNK        -0.0947 
     70 S70        31.6348    1.7408   -4.0815 S.3       12 UNK        -0.2240 
     71 C71        31.2027    0.5986   -2.7240 C.3       12 UNK         0.0194 
     72 H72        26.4431   -7.4356   -4.3262 H         1 UNK         0.0906 
     73 H73        26.1044   -5.7931   -4.8756 H         1 UNK         0.0906 
     74 H74        27.7721   -6.3154   -4.5959 H         1 UNK         0.0906 
     75 H75        28.3863   -4.9047   -2.8930 H         1 UNK         0.3140 
     76 H76        27.5083   -5.5624   -0.2752 H         1 UNK         0.1085 
     77 H77        29.1480   -3.9162    0.5163 H         1 UNK         0.0836 
     78 H78        29.2524   -3.1903   -1.0647 H         1 UNK         0.0836 
     79 H79        32.1529   -3.7176   -0.4285 H         1 UNK         0.0731 
     80 H80        32.6801   -4.8229   -1.6729 H         1 UNK         0.0731 
     81 H81        31.8023   -1.5033   -1.1410 H         1 UNK         0.1312 
     82 H82        30.4932   -0.6020   -5.1200 H         1 UNK         0.1406 
     83 H83        31.1509   -4.6728   -3.9549 H         1 UNK         0.1631 
     84 H84        31.2006   -3.7963   -6.4742 H         1 UNK         0.0717 
     85 H85        30.3768   -2.2929   -6.7708 H         1 UNK         0.0717 
     86 H86        26.8593   -3.4114   -5.0081 H         1 UNK         0.0934 
     87 H87        28.0932   -2.2512   -4.6654 H         1 UNK         0.0934 
     88 H88        26.9355   -2.4684   -7.4957 H         1 UNK         0.0739 
     89 H89        25.4510   -1.4976   -5.2063 H         1 UNK         0.3093 
     90 H90        23.0829    0.3733   -7.0621 H         1 UNK         0.0818 
     91 H91        21.4286   -1.2041   -6.0932 H         1 UNK         0.0819 
     92 H92        22.2524   -1.9534   -7.4496 H         1 UNK         0.0819 
     93 H93        22.6928   -2.4014   -5.8075 H         1 UNK         0.0819 
     94 H94        23.1685   -0.4512   -4.3246 H         1 UNK         0.3041 
     95 H95        25.5268    1.8950   -3.1503 H         1 UNK         0.0784 
     96 H96        23.5292    3.3865   -3.3879 H         1 UNK         0.0793 
     97 H97        22.4868    2.0964   -2.8046 H         1 UNK         0.0793 
     98 H98        23.7063    2.8030   -1.7428 H         1 UNK         0.0793 
     99 H99        23.8325    0.3178   -1.6103 H         1 UNK         0.3024 
    100 H100       25.0976   -1.4408   -0.4478 H         1 UNK         0.1171 
    101 H101       22.8749   -1.9018   -1.5447 H         1 UNK         0.0786 
    102 H102       23.5482   -3.3860   -0.9004 H         1 UNK         0.0786 
    103 H103       23.6345   -3.0622   -2.6285 H         1 UNK         0.0786 
    104 H104       26.5723   -2.9416   -2.4571 H         1 UNK         0.2977 
    105 H105       27.1845    0.2186   -5.1554 H         1 UNK         0.3127 
    106 H106       29.5514    1.4144   -6.1500 H         1 UNK         0.0770 
    107 H107       27.1970    2.7961   -4.7468 H         1 UNK         0.0814 
    108 H108       28.8473    3.3813   -4.8556 H         1 UNK         0.0814 
    109 H109       28.4951    1.9390   -3.9186 H         1 UNK         0.0814 
    110 H110       26.1075    2.0960   -6.9409 H         1 UNK         0.2983 
    111 H111       26.5598    4.0811   -8.8927 H         1 UNK         0.0947 
    112 H112       24.2240    3.5341   -9.6096 H         1 UNK         0.0806 
    113 H113       24.3439    3.6299   -7.8592 H         1 UNK         0.0806 
    114 H114       24.2652    2.0583   -8.6529 H         1 UNK         0.0806 
    115 H115       26.5967    0.5366   -9.2171 H         1 UNK         0.3000 
    116 H116       26.7461    0.5524  -12.1104 H         1 UNK         0.0850 
    117 H117       27.1380   -1.8996  -11.8092 H         1 UNK         0.0810 
    118 H118       25.7275   -1.3459  -10.9213 H         1 UNK         0.0810 
    119 H119       27.2301   -1.6785  -10.0666 H         1 UNK         0.0810 
    120 H120       29.1471   -0.2221   -9.5130 H         1 UNK         0.3040 
    121 H121       31.2394   -0.4667  -11.6151 H         1 UNK         0.0766 
    122 H122       32.3432   -1.9053   -9.9560 H         1 UNK         0.0812 
    123 H123       30.6766   -2.4235  -10.1544 H         1 UNK         0.0812 
    124 H124       31.1498   -1.4875   -8.7378 H         1 UNK         0.0812 
    125 H125       30.4080    1.8167   -9.1433 H         1 UNK         0.3205 
    126 H126       31.4199    3.4896   -8.1320 H         1 UNK         0.0754 
    127 H127       33.2828    4.6778   -9.1549 H         1 UNK         0.0769 
    128 H128       32.2025    4.1360  -10.4271 H         1 UNK         0.0769 
    129 H129       33.7211    3.2882  -10.1327 H         1 UNK         0.0769 
    130 H130       31.9900    0.6860   -7.3402 H         1 UNK         0.2981 
    131 H131       32.9673   -0.4399   -5.7398 H         1 UNK         0.0541 
    132 H132       35.5408   -0.0189   -4.2627 H         1 UNK         0.3459 
    133 H133       36.7423   -0.4192   -5.4615 H         1 UNK         0.3459 
    134 H134       33.9505    2.1810   -4.5064 H         1 UNK         0.0612 
    135 H135       33.7409    0.6623   -3.6730 H         1 UNK         0.0612 
    136 H136       30.2151    0.8696   -2.3494 H         1 UNK         0.0624 
    137 H137       31.9010    0.7698   -1.9033 H         1 UNK         0.0624 
@<TRIPOS>BOND
     1    1    2 1    
     2    1   72 1    
     3    1   73 1    
     4    1   74 1    
     5    2    3 2    
     6    2    4 am   BACKBONE|DICT|INTERRES
     7    4    5 1    
     8    4   75 1    
     9    5    6 1    
    10    5   35 1    
    11    5   76 1    
    12    6    7 1    
    13    6   77 1    
    14    6   78 1    
    15    7    8 1    
    16    8    9 1    
    17    8   79 1    
    18    8   80 1    
    19    9   10 ar   
    20    9   14 ar   
    21   10   11 ar   
    22   10   81 1    
    23   11   12 ar   
    24   11   71 1    
    25   12   13 ar   
    26   12   82 1    
    27   13   14 ar   
    28   13   15 1    
    29   14   83 1    
    30   15   16 1    
    31   15   84 1    
    32   15   85 1    
    33   16   17 1    
    34   17   18 1    
    35   17   86 1    
    36   17   87 1    
    37   18   19 1    
    38   18   37 1    
    39   18   88 1    
    40   19   20 am   BACKBONE|DICT|INTERRES
    41   19   89 1    
    42   20   21 2    
    43   20   22 1    
    44   22   23 1    
    45   22   24 1    
    46   22   90 1    
    47   23   91 1    
    48   23   92 1    
    49   23   93 1    
    50   24   25 am   BACKBONE|DICT|INTERRES
    51   24   94 1    
    52   25   26 2    
    53   25   27 1    
    54   27   28 1    
    55   27   29 1    
    56   27   95 1    
    57   28   96 1    
    58   28   97 1    
    59   28   98 1    
    60   29   30 am   BACKBONE|DICT|INTERRES
    61   29   99 1    
    62   30   31 2    
    63   30   32 1    
    64   32   33 1    
    65   32   34 1    
    66   32  100 1    
    67   33  101 1    
    68   33  102 1    
    69   33  103 1    
    70   34   35 am   BACKBONE|DICT|INTERRES
    71   34  104 1    
    72   35   36 2    
    73   37   38 2    
    74   37   39 am   BACKBONE|DICT|INTERRES
    75   39   40 1    
    76   39  105 1    
    77   40   41 1    
    78   40   42 1    
    79   40  106 1    
    80   41  107 1    
    81   41  108 1    
    82   41  109 1    
    83   42   43 2    
    84   42   44 am   BACKBONE|DICT|INTERRES
    85   44   45 1    
    86   44  110 1    
    87   45   46 1    
    88   45   47 1    
    89   45  111 1    
    90   46  112 1    
    91   46  113 1    
    92   46  114 1    
    93   47   48 2    
    94   47   49 am   BACKBONE|DICT|INTERRES
    95   49   50 1    
    96   49  115 1    
    97   50   51 1    
    98   50   52 1    
    99   50  116 1    
   100   51  117 1    
   101   51  118 1    
   102   51  119 1    
   103   52   53 2    
   104   52   54 am   BACKBONE|DICT|INTERRES
   105   54   55 1    
   106   54  120 1    
   107   55   56 1    
   108   55   57 1    
   109   55  121 1    
   110   56  122 1    
   111   56  123 1    
   112   56  124 1    
   113   57   58 2    
   114   57   59 am   BACKBONE|DICT|INTERRES
   115   59   60 1    
   116   59  125 1    
   117   60   61 1    
   118   60   62 1    
   119   60  126 1    
   120   61  127 1    
   121   61  128 1    
   122   61  129 1    
   123   62   63 2    
   124   62   64 am   BACKBONE|DICT|INTERRES
   125   64   65 1    
   126   64  130 1    
   127   65   66 1    
   128   65   69 1    
   129   65  131 1    
   130   66   67 am   BACKBONE|DICT|INTERRES
   131   66   68 2    
   132   67  132 1    
   133   67  133 1    
   134   69   70 1    
   135   69  134 1    
   136   69  135 1    
   137   70   71 1    
   138   71  136 1    
   139   71  137 1    
@<TRIPOS>SUBSTRUCTURE
     1 UNK         1 GROUP             0       ****    0 ROOT    
