@<TRIPOS>MOLECULE
3R137
137   139    1
SMALL
USER_CHARGES


@<TRIPOS>ATOM
      1 CA         23.7164   -5.8311   -2.3066 C.3       0 UNK        -0.2020 
      2 C          24.9206   -4.9039   -2.3641 C.2       0 UNK         0.4855 
      3 O          25.2139   -4.3583   -3.4258 O.2       0 UNK        -0.5197 
      4 N          25.6029   -4.7142   -1.2260 N.am      1 UNK        -0.4892 
      5 CA         26.8070   -3.8916   -1.0371 C.3       1 UNK         0.0835 
      6 C6         28.0929   -4.5636   -1.5961 C.3       12 UNK        -0.0855 
      7 S7         29.5072   -4.2816   -0.4790 S.3       12 UNK        -0.2931 
      8 C8         30.9255   -4.4119   -1.6160 C.3       12 UNK         0.0378 
      9 C9         31.1535   -3.1766   -2.4840 C.ar      12 UNK        -0.0802 
     10 C10        31.5673   -3.3400   -3.8084 C.ar      12 UNK        -0.0944 
     11 C11        31.8559   -2.2317   -4.6086 C.ar      12 UNK        -0.0787 
     12 C12        31.7211   -0.9453   -4.0788 C.ar      12 UNK        -0.0862 
     13 C13        31.3081   -0.7610   -2.7549 C.ar      12 UNK        -0.0733 
     14 C14        31.0295   -1.8818   -1.9644 C.ar      12 UNK        -0.0832 
     15 C15        31.2101    0.6371   -2.1473 C.3       12 UNK         0.0240 
     16 S16        30.3037    1.8432   -3.1756 S.3       12 UNK        -0.2522 
     17 C17        28.6732    1.0470   -3.3523 C.3       12 UNK        -0.0967 
     18 CA         28.3283    0.7846   -4.8415 C.3       5 UNK         0.0660 
     19 N          27.5980   -0.4738   -5.0228 N.am      5 UNK        -0.4015 
     20 C          27.3026   -1.0162   -6.2142 C.2       4 UNK         0.4946 
     21 O          27.5961   -0.5111   -7.2970 O.2       4 UNK        -0.5353 
     22 CA         26.4752   -2.3099   -6.1983 C.3       4 UNK         0.0277 
     23 CB         27.3418   -3.5162   -5.8050 C.3       4 UNK        -0.1981 
     24 N          25.3218   -2.2099   -5.3038 N.am      4 UNK        -0.4209 
     25 C          24.3036   -1.3538   -5.4759 C.2       3 UNK         0.4942 
     26 O          24.1915   -0.6049   -6.4465 O.2       3 UNK        -0.5208 
     27 CA         23.2582   -1.2850   -4.3519 C.3       3 UNK         0.0250 
     28 CB         22.2758   -2.4642   -4.4375 C.3       3 UNK        -0.1990 
     29 N          23.8699   -1.2361   -3.0214 N.am      3 UNK        -0.4232 
     30 C          24.6388   -0.2308   -2.5767 C.2       2 UNK         0.4993 
     31 O          24.9029    0.7736   -3.2338 O.2       2 UNK        -0.5286 
     32 CA         25.2481   -0.3805   -1.1749 C.3       2 UNK         0.0209 
     33 CB         24.2770    0.1398   -0.1034 C.3       2 UNK        -0.1931 
     34 N          25.6375   -1.7570   -0.8616 N.am      2 UNK        -0.4546 
     35 C          26.5987   -2.4343   -1.5056 C.2       1 UNK         0.5154 
     36 O          27.2423   -1.9666   -2.4485 O.2       1 UNK        -0.5181 
     37 C          27.6083    1.9954   -5.4779 C.2       5 UNK         0.5014 
     38 O          28.2653    2.8455   -6.0797 O.2       5 UNK        -0.5248 
     39 N          26.2734    2.0497   -5.3527 N.am      6 UNK        -0.4434 
     40 CA         25.4211    3.0622   -5.9795 C.3       6 UNK         0.0363 
     41 CB         24.0029    2.9847   -5.3923 C.3       6 UNK        -0.1936 
     42 C          25.3737    2.9499   -7.5125 C.2       6 UNK         0.5081 
     43 O          25.2826    3.9803   -8.1810 O.2       6 UNK        -0.5248 
     44 N          25.4348    1.7203   -8.0456 N.am      7 UNK        -0.4718 
     45 CA         25.5007    1.4518   -9.4841 C.3       7 UNK         0.0273 
     46 CB         25.2179   -0.0332   -9.7642 C.3       7 UNK        -0.1935 
     47 C          26.8422    1.8949  -10.0911 C.2       7 UNK         0.5018 
     48 O          26.8375    2.5867  -11.1107 O.2       7 UNK        -0.5186 
     49 N          27.9549    1.5306   -9.4410 N.am      8 UNK        -0.4240 
     50 CA         29.3017    1.9876   -9.7760 C.3       8 UNK         0.0235 
     51 CB         29.8266    1.2811  -11.0428 C.3       8 UNK        -0.2000 
     52 C          30.2203    1.7107   -8.5855 C.2       8 UNK         0.4941 
     53 O          30.3294    0.5579   -8.1732 O.2       8 UNK        -0.5273 
     54 N          30.9195    2.7402   -8.0893 N.am      9 UNK        -0.4262 
     55 CA         31.8304    2.6402   -6.9394 C.3       9 UNK         0.0264 
     56 CB         32.2922    4.0477   -6.5299 C.3       9 UNK        -0.1955 
     57 C          33.0428    1.7154   -7.1666 C.2       9 UNK         0.5031 
     58 O          33.5944    1.1948   -6.1973 O.2       9 UNK        -0.5390 
     59 N          33.4259    1.5191   -8.4346 N.am      10 UNK        -0.4204 
     60 CA         34.4514    0.5663   -8.8628 C.3       10 UNK         0.0237 
     61 CB         35.1908    1.1567  -10.0764 C.3       10 UNK        -0.1985 
     62 C          33.8769   -0.8223   -9.2091 C.2       10 UNK         0.4970 
     63 O          34.6665   -1.7380   -9.4455 O.2       10 UNK        -0.4914 
     64 N          32.5422   -0.9605   -9.2557 N.am      11 UNK        -0.4285 
     65 CA         31.8012   -2.1497   -9.7085 C.3       11 UNK         0.1007 
     66 C          32.1449   -2.5640  -11.1745 C.2       11 UNK         0.5703 
     67 N          31.9875   -3.8271  -11.5502 N.am      11 UNK        -0.7361 
     68 O          32.4977   -1.7281  -12.0052 O.2       11 UNK        -0.4986 
     69 C69        31.8466   -3.3067   -8.6680 C.3       12 UNK        -0.0947 
     70 S70        30.9656   -2.8746   -7.1320 S.3       12 UNK        -0.2240 
     71 C71        32.3420   -2.4361   -6.0339 C.3       12 UNK         0.0194 
     72 H72        23.8177   -6.6206   -3.0507 H         1 UNK         0.0906 
     73 H73        23.6070   -6.3002   -1.3291 H         1 UNK         0.0906 
     74 H74        22.8038   -5.2763   -2.5216 H         1 UNK         0.0906 
     75 H75        25.2826   -5.1880   -0.3920 H         1 UNK         0.3140 
     76 H76        26.9117   -3.8299    0.0479 H         1 UNK         0.1085 
     77 H77        27.9572   -5.6441   -1.6639 H         1 UNK         0.0836 
     78 H78        28.3290   -4.2370   -2.6102 H         1 UNK         0.0836 
     79 H79        30.7962   -5.3021   -2.2339 H         1 UNK         0.0731 
     80 H80        31.8259   -4.5791   -1.0235 H         1 UNK         0.0731 
     81 H81        31.6833   -4.3340   -4.2189 H         1 UNK         0.1312 
     82 H82        31.9481   -0.0855   -4.6929 H         1 UNK         0.1406 
     83 H83        30.7315   -1.7479   -0.9336 H         1 UNK         0.1631 
     84 H84        32.2200    1.0137   -1.9808 H         1 UNK         0.0717 
     85 H85        30.7321    0.5982   -1.1672 H         1 UNK         0.0717 
     86 H86        28.6955    0.1108   -2.7954 H         1 UNK         0.0934 
     87 H87        27.9143    1.6549   -2.8551 H         1 UNK         0.0934 
     88 H88        29.2598    0.6474   -5.3966 H         1 UNK         0.0739 
     89 H89        27.3352   -0.9755   -4.1788 H         1 UNK         0.3093 
     90 H90        26.0969   -2.4781   -7.2089 H         1 UNK         0.0818 
     91 H91        26.7636   -4.4402   -5.8114 H         1 UNK         0.0819 
     92 H92        28.1666   -3.6454   -6.5055 H         1 UNK         0.0819 
     93 H93        27.7723   -3.3982   -4.8102 H         1 UNK         0.0819 
     94 H94        25.3172   -2.8320   -4.4970 H         1 UNK         0.3041 
     95 H95        22.6905   -0.3618   -4.4869 H         1 UNK         0.0784 
     96 H96        21.7775   -2.4827   -5.4077 H         1 UNK         0.0793 
     97 H97        22.7790   -3.4234   -4.3143 H         1 UNK         0.0793 
     98 H98        21.4986   -2.3908   -3.6767 H         1 UNK         0.0793 
     99 H99        23.7366   -2.0381   -2.4240 H         1 UNK         0.3024 
    100 H100       26.1503    0.2354   -1.1481 H         1 UNK         0.1171 
    101 H101       23.9878    1.1717   -0.3086 H         1 UNK         0.0786 
    102 H102       24.7330    0.1247    0.8867 H         1 UNK         0.0786 
    103 H103       23.3622   -0.4527   -0.0621 H         1 UNK         0.0786 
    104 H104       25.1348   -2.2171   -0.1160 H         1 UNK         0.2977 
    105 H105       25.8025    1.3668   -4.7621 H         1 UNK         0.3127 
    106 H106       25.8352    4.0427   -5.7350 H         1 UNK         0.0770 
    107 H107       23.5489    2.0082   -5.5652 H         1 UNK         0.0814 
    108 H108       23.3508    3.7338   -5.8432 H         1 UNK         0.0814 
    109 H109       24.0087    3.1656   -4.3174 H         1 UNK         0.0814 
    110 H110       25.4716    0.9181   -7.4263 H         1 UNK         0.2983 
    111 H111       24.7131    2.0351   -9.9666 H         1 UNK         0.0947 
    112 H112       25.2065   -0.2301  -10.8369 H         1 UNK         0.0806 
    113 H113       24.2473   -0.3326   -9.3682 H         1 UNK         0.0806 
    114 H114       25.9719   -0.6847   -9.3234 H         1 UNK         0.0806 
    115 H115       27.8842    0.9313   -8.6183 H         1 UNK         0.3000 
    116 H116       29.2691    3.0644   -9.9553 H         1 UNK         0.0850 
    117 H117       30.8581    1.5657  -11.2539 H         1 UNK         0.0810 
    118 H118       29.2365    1.5411  -11.9214 H         1 UNK         0.0810 
    119 H119       29.8026    0.1961  -10.9360 H         1 UNK         0.0810 
    120 H120       30.7809    3.6622   -8.4782 H         1 UNK         0.3040 
    121 H121       31.2589    2.2171   -6.1104 H         1 UNK         0.0766 
    122 H122       31.4448    4.6793   -6.2622 H         1 UNK         0.0812 
    123 H123       32.8448    4.5419   -7.3298 H         1 UNK         0.0812 
    124 H124       32.9472    4.0039   -5.6585 H         1 UNK         0.0812 
    125 H125       32.9274    2.0100   -9.1624 H         1 UNK         0.3205 
    126 H126       35.1782    0.4252   -8.0598 H         1 UNK         0.0754 
    127 H127       35.9985    0.4991  -10.4009 H         1 UNK         0.0769 
    128 H128       35.6387    2.1216   -9.8374 H         1 UNK         0.0769 
    129 H129       34.5233    1.2963  -10.9279 H         1 UNK         0.0769 
    130 H130       31.9484   -0.1944   -8.9572 H         1 UNK         0.2981 
    131 H131       30.7632   -1.8220   -9.7744 H         1 UNK         0.0541 
    132 H132       32.1892   -4.0809  -12.5047 H         1 UNK         0.3459 
    133 H133       31.6781   -4.5306  -10.8990 H         1 UNK         0.3459 
    134 H134       31.3475   -4.1982   -9.0482 H         1 UNK         0.0612 
    135 H135       32.8737   -3.6029   -8.4504 H         1 UNK         0.0612 
    136 H136       33.0926   -3.2276   -6.0523 H         1 UNK         0.0624 
    137 H137       32.8282   -1.5343   -6.4074 H         1 UNK         0.0624 
@<TRIPOS>BOND
     1    1    2 1    
     2    1   72 1    
     3    1   73 1    
     4    1   74 1    
     5    2    3 2    
     6    2    4 am   BACKBONE|DICT|INTERRES
     7    4    5 1    
     8    4   75 1    
     9    5    6 1    
    10    5   35 1    
    11    5   76 1    
    12    6    7 1    
    13    6   77 1    
    14    6   78 1    
    15    7    8 1    
    16    8    9 1    
    17    8   79 1    
    18    8   80 1    
    19    9   10 ar   
    20    9   14 ar   
    21   10   11 ar   
    22   10   81 1    
    23   11   12 ar   
    24   11   71 1    
    25   12   13 ar   
    26   12   82 1    
    27   13   14 ar   
    28   13   15 1    
    29   14   83 1    
    30   15   16 1    
    31   15   84 1    
    32   15   85 1    
    33   16   17 1    
    34   17   18 1    
    35   17   86 1    
    36   17   87 1    
    37   18   19 1    
    38   18   37 1    
    39   18   88 1    
    40   19   20 am   BACKBONE|DICT|INTERRES
    41   19   89 1    
    42   20   21 2    
    43   20   22 1    
    44   22   23 1    
    45   22   24 1    
    46   22   90 1    
    47   23   91 1    
    48   23   92 1    
    49   23   93 1    
    50   24   25 am   BACKBONE|DICT|INTERRES
    51   24   94 1    
    52   25   26 2    
    53   25   27 1    
    54   27   28 1    
    55   27   29 1    
    56   27   95 1    
    57   28   96 1    
    58   28   97 1    
    59   28   98 1    
    60   29   30 am   BACKBONE|DICT|INTERRES
    61   29   99 1    
    62   30   31 2    
    63   30   32 1    
    64   32   33 1    
    65   32   34 1    
    66   32  100 1    
    67   33  101 1    
    68   33  102 1    
    69   33  103 1    
    70   34   35 am   BACKBONE|DICT|INTERRES
    71   34  104 1    
    72   35   36 2    
    73   37   38 2    
    74   37   39 am   BACKBONE|DICT|INTERRES
    75   39   40 1    
    76   39  105 1    
    77   40   41 1    
    78   40   42 1    
    79   40  106 1    
    80   41  107 1    
    81   41  108 1    
    82   41  109 1    
    83   42   43 2    
    84   42   44 am   BACKBONE|DICT|INTERRES
    85   44   45 1    
    86   44  110 1    
    87   45   46 1    
    88   45   47 1    
    89   45  111 1    
    90   46  112 1    
    91   46  113 1    
    92   46  114 1    
    93   47   48 2    
    94   47   49 am   BACKBONE|DICT|INTERRES
    95   49   50 1    
    96   49  115 1    
    97   50   51 1    
    98   50   52 1    
    99   50  116 1    
   100   51  117 1    
   101   51  118 1    
   102   51  119 1    
   103   52   53 2    
   104   52   54 am   BACKBONE|DICT|INTERRES
   105   54   55 1    
   106   54  120 1    
   107   55   56 1    
   108   55   57 1    
   109   55  121 1    
   110   56  122 1    
   111   56  123 1    
   112   56  124 1    
   113   57   58 2    
   114   57   59 am   BACKBONE|DICT|INTERRES
   115   59   60 1    
   116   59  125 1    
   117   60   61 1    
   118   60   62 1    
   119   60  126 1    
   120   61  127 1    
   121   61  128 1    
   122   61  129 1    
   123   62   63 2    
   124   62   64 am   BACKBONE|DICT|INTERRES
   125   64   65 1    
   126   64  130 1    
   127   65   66 1    
   128   65   69 1    
   129   65  131 1    
   130   66   67 am   BACKBONE|DICT|INTERRES
   131   66   68 2    
   132   67  132 1    
   133   67  133 1    
   134   69   70 1    
   135   69  134 1    
   136   69  135 1    
   137   70   71 1    
   138   71  136 1    
   139   71  137 1    
@<TRIPOS>SUBSTRUCTURE
     1 UNK         1 GROUP             0       ****    0 ROOT    
