@<TRIPOS>MOLECULE
3R137
137   139    1
SMALL
USER_CHARGES


@<TRIPOS>ATOM
      1 CA         26.1980   -6.8508   -2.9326 C.3       0 UNK        -0.2020 
      2 C          26.8379   -5.4737   -3.0096 C.2       0 UNK         0.4855 
      3 O          26.7252   -4.8081   -4.0403 O.2       0 UNK        -0.5197 
      4 N          27.4947   -5.0364   -1.9225 N.am      1 UNK        -0.4892 
      5 CA         28.1991   -3.7500   -1.7927 C.3       1 UNK         0.0835 
      6 C6         29.5138   -3.7097   -2.6280 C.3       12 UNK        -0.0855 
      7 S7         30.9938   -4.2084   -1.6866 S.3       12 UNK        -0.2931 
      8 C8         31.5071   -2.6568   -0.8536 C.3       12 UNK         0.0378 
      9 C9         31.4708   -1.4090   -1.7370 C.ar      12 UNK        -0.0802 
     10 C10        32.0560   -1.4077   -3.0077 C.ar      12 UNK        -0.0944 
     11 C11        31.9633   -0.2840   -3.8405 C.ar      12 UNK        -0.0787 
     12 C12        31.3198    0.8618   -3.3614 C.ar      12 UNK        -0.0862 
     13 C13        30.7481    0.8871   -2.0850 C.ar      12 UNK        -0.0733 
     14 C14        30.8251   -0.2551   -1.2823 C.ar      12 UNK        -0.0832 
     15 C15        30.0530    2.1390   -1.5494 C.3       12 UNK         0.0240 
     16 S16        28.9535    2.9743   -2.7475 S.3       12 UNK        -0.2522 
     17 C17        27.8052    1.6393   -3.2223 C.3       12 UNK        -0.0967 
     18 CA         27.7829    1.4232   -4.7601 C.3       5 UNK         0.0660 
     19 N          27.6764    0.0084   -5.1239 N.am      5 UNK        -0.4015 
     20 C          27.9528   -0.4984   -6.3346 C.2       4 UNK         0.4946 
     21 O          28.4371    0.1496   -7.2635 O.2       4 UNK        -0.5353 
     22 CA         27.6232   -1.9831   -6.5649 C.3       4 UNK         0.0277 
     23 CB         28.8268   -2.8669   -6.2194 C.3       4 UNK        -0.1981 
     24 N          26.4369   -2.4343   -5.8336 N.am      4 UNK        -0.4209 
     25 C          25.1941   -2.0232   -6.1245 C.2       3 UNK         0.4942 
     26 O          24.9327   -1.2394   -7.0370 O.2       3 UNK        -0.5208 
     27 CA         24.0563   -2.5387   -5.2303 C.3       3 UNK         0.0250 
     28 CB         23.6416   -3.9634   -5.6314 C.3       3 UNK        -0.1990 
     29 N          24.4055   -2.5009   -3.8097 N.am      3 UNK        -0.4232 
     30 C          24.5779   -1.3734   -3.1053 C.2       2 UNK         0.4993 
     31 O          24.4407   -0.2433   -3.5734 O.2       2 UNK        -0.5286 
     32 CA         25.0362   -1.5332   -1.6449 C.3       2 UNK         0.0209 
     33 CB         23.8384   -1.8270   -0.7277 C.3       2 UNK        -0.1931 
     34 N          26.0639   -2.5659   -1.4636 N.am      2 UNK        -0.4546 
     35 C          27.2561   -2.5567   -2.0788 C.2       1 UNK         0.5154 
     36 O          27.5832   -1.6788   -2.8761 O.2       1 UNK        -0.5181 
     37 C          26.6790    2.2680   -5.4291 C.2       5 UNK         0.5014 
     38 O          26.9563    3.3838   -5.8693 O.2       5 UNK        -0.5248 
     39 N          25.4496    1.7302   -5.5127 N.am      6 UNK        -0.4434 
     40 CA         24.3318    2.3435   -6.2400 C.3       6 UNK         0.0363 
     41 CB         23.0313    1.5699   -5.9732 C.3       6 UNK        -0.1936 
     42 C          24.6104    2.4514   -7.7487 C.2       6 UNK         0.5081 
     43 O          24.3160    3.4850   -8.3488 O.2       6 UNK        -0.5248 
     44 N          25.2534    1.4248   -8.3200 N.am      7 UNK        -0.4718 
     45 CA         25.7992    1.4035   -9.6809 C.3       7 UNK         0.0273 
     46 CB         25.9045   -0.0617  -10.1390 C.3       7 UNK        -0.1935 
     47 C          27.1442    2.1599   -9.7946 C.2       7 UNK         0.5018 
     48 O          28.0778    1.6656  -10.4302 O.2       7 UNK        -0.5186 
     49 N          27.2184    3.3475   -9.1772 N.am      8 UNK        -0.4240 
     50 CA         28.3525    4.2719   -9.0602 C.3       8 UNK         0.0235 
     51 CB         28.7990    4.8055  -10.4369 C.3       8 UNK        -0.2000 
     52 C          29.5362    3.7118   -8.2517 C.2       8 UNK         0.4941 
     53 O          29.8683    4.2734   -7.2075 O.2       8 UNK        -0.5273 
     54 N          30.1547    2.6394   -8.7551 N.am      9 UNK        -0.4262 
     55 CA         31.2916    1.9279   -8.1728 C.3       9 UNK         0.0264 
     56 CB         32.5367    2.8375   -8.0490 C.3       9 UNK        -0.1955 
     57 C          31.5702    0.6837   -9.0274 C.2       9 UNK         0.5031 
     58 O          32.6659    0.5381   -9.5724 O.2       9 UNK        -0.5390 
     59 N          30.5685   -0.1955   -9.1541 N.am      10 UNK        -0.4204 
     60 CA         30.6298   -1.3971   -9.9994 C.3       10 UNK         0.0237 
     61 CB         29.2029   -1.8248  -10.3773 C.3       10 UNK        -0.1985 
     62 C          31.4222   -2.5711   -9.3867 C.2       10 UNK         0.4970 
     63 O          31.4597   -3.6449   -9.9888 O.2       10 UNK        -0.4914 
     64 N          32.0258   -2.3669   -8.2094 N.am      11 UNK        -0.4285 
     65 CA         32.8274   -3.3590   -7.4793 C.3       11 UNK         0.1007 
     66 C          34.2108   -3.6928   -8.1142 C.2       11 UNK         0.5703 
     67 N          34.7023   -2.9250   -9.0805 N.am      11 UNK        -0.7361 
     68 O          34.8407   -4.6755   -7.7304 O.2       11 UNK        -0.4986 
     69 C69        32.9342   -2.9942   -5.9745 C.3       12 UNK        -0.0947 
     70 S70        33.8408   -1.4390   -5.6445 S.3       12 UNK        -0.2240 
     71 C71        32.4896   -0.2692   -5.2764 C.3       12 UNK         0.0194 
     72 H72        26.3580   -7.3232   -1.9637 H         1 UNK         0.0906 
     73 H73        25.1242   -6.7747   -3.1012 H         1 UNK         0.0906 
     74 H74        26.6177   -7.5001   -3.7005 H         1 UNK         0.0906 
     75 H75        27.5438   -5.6347   -1.1088 H         1 UNK         0.3140 
     76 H76        28.4607   -3.6413   -0.7389 H         1 UNK         0.1085 
     77 H77        29.4388   -4.3640   -3.4973 H         1 UNK         0.0836 
     78 H78        29.7153   -2.7293   -3.0495 H         1 UNK         0.0836 
     79 H79        32.5207   -2.7849   -0.4717 H         1 UNK         0.0731 
     80 H80        30.8690   -2.5203    0.0207 H         1 UNK         0.0731 
     81 H81        32.5469   -2.3065   -3.3492 H         1 UNK         0.1312 
     82 H82        31.2491    1.7375   -3.9921 H         1 UNK         0.1406 
     83 H83        30.3765   -0.2463   -0.2982 H         1 UNK         0.1631 
     84 H84        30.8166    2.8477   -1.2267 H         1 UNK         0.0717 
     85 H85        29.4637    1.8989   -0.6630 H         1 UNK         0.0717 
     86 H86        28.1272    0.7327   -2.7143 H         1 UNK         0.0934 
     87 H87        26.8128    1.8504   -2.8181 H         1 UNK         0.0934 
     88 H88        28.7353    1.7639   -5.1740 H         1 UNK         0.0739 
     89 H89        27.3920   -0.6296   -4.3830 H         1 UNK         0.3093 
     90 H90        27.4055   -2.1105   -7.6256 H         1 UNK         0.0818 
     91 H91        29.1651   -2.6907   -5.2021 H         1 UNK         0.0819 
     92 H92        28.5948   -3.9269   -6.3241 H         1 UNK         0.0819 
     93 H93        29.6647   -2.6487   -6.8785 H         1 UNK         0.0819 
     94 H94        26.5744   -3.1080   -5.0842 H         1 UNK         0.3041 
     95 H95        23.1960   -1.8829   -5.3806 H         1 UNK         0.0784 
     96 H96        23.3508   -4.0013   -6.6821 H         1 UNK         0.0793 
     97 H97        24.4527   -4.6790   -5.4930 H         1 UNK         0.0793 
     98 H98        22.7877   -4.3070   -5.0474 H         1 UNK         0.0793 
     99 H99        24.6018   -3.3846   -3.3623 H         1 UNK         0.3024 
    100 H100       25.4735   -0.5790   -1.3415 H         1 UNK         0.1171 
    101 H101       23.0673   -1.0629   -0.8373 H         1 UNK         0.0786 
    102 H102       24.1347   -1.8363    0.3214 H         1 UNK         0.0786 
    103 H103       23.3785   -2.7893   -0.9560 H         1 UNK         0.0786 
    104 H104       25.8460   -3.3310   -0.8412 H         1 UNK         0.2977 
    105 H105       25.2601    0.8449   -5.0518 H         1 UNK         0.3127 
    106 H106       24.2050    3.3575   -5.8551 H         1 UNK         0.0770 
    107 H107       23.0940    0.5378   -6.3170 H         1 UNK         0.0814 
    108 H108       22.1899    2.0342   -6.4891 H         1 UNK         0.0814 
    109 H109       22.7905    1.5544   -4.9102 H         1 UNK         0.0814 
    110 H110       25.4197    0.5954   -7.7576 H         1 UNK         0.2983 
    111 H111       25.0975    1.9101  -10.3468 H         1 UNK         0.0947 
    112 H112       26.2611   -0.1314  -11.1674 H         1 UNK         0.0806 
    113 H113       24.9360   -0.5604  -10.0979 H         1 UNK         0.0806 
    114 H114       26.5939   -0.6240   -9.5093 H         1 UNK         0.0806 
    115 H115       26.3861    3.6349   -8.6742 H         1 UNK         0.3000 
    116 H116       27.9704    5.1231   -8.4940 H         1 UNK         0.0850 
    117 H117       29.5993    5.5385  -10.3271 H         1 UNK         0.0810 
    118 H118       27.9764    5.2998  -10.9535 H         1 UNK         0.0810 
    119 H119       29.1730    4.0145  -11.0873 H         1 UNK         0.0810 
    120 H120       29.7334    2.2132   -9.5784 H         1 UNK         0.3040 
    121 H121       31.0018    1.5896   -7.1766 H         1 UNK         0.0766 
    122 H122       32.3789    3.6543   -7.3458 H         1 UNK         0.0812 
    123 H123       32.8127    3.2714   -9.0107 H         1 UNK         0.0812 
    124 H124       33.3976    2.2752   -7.6846 H         1 UNK         0.0812 
    125 H125       29.7029   -0.0283   -8.6394 H         1 UNK         0.3205 
    126 H126       31.1431   -1.1318  -10.9262 H         1 UNK         0.0754 
    127 H127       29.2131   -2.6612  -11.0774 H         1 UNK         0.0769 
    128 H128       28.6645   -1.0109  -10.8620 H         1 UNK         0.0769 
    129 H129       28.6332   -2.1391   -9.5054 H         1 UNK         0.0769 
    130 H130       31.9965   -1.4429   -7.8101 H         1 UNK         0.2981 
    131 H131       32.2669   -4.2948   -7.5250 H         1 UNK         0.0541 
    132 H132       34.1978   -2.1097   -9.3912 H         1 UNK         0.3459 
    133 H133       35.5953   -3.1536   -9.4874 H         1 UNK         0.3459 
    134 H134       31.9336   -2.9297   -5.5448 H         1 UNK         0.0612 
    135 H135       33.4321   -3.7964   -5.4270 H         1 UNK         0.0612 
    136 H136       31.6547   -0.4558   -5.9522 H         1 UNK         0.0624 
    137 H137       32.8593    0.7304   -5.5100 H         1 UNK         0.0624 
@<TRIPOS>BOND
     1    1    2 1    
     2    1   72 1    
     3    1   73 1    
     4    1   74 1    
     5    2    3 2    
     6    2    4 am   BACKBONE|DICT|INTERRES
     7    4    5 1    
     8    4   75 1    
     9    5    6 1    
    10    5   35 1    
    11    5   76 1    
    12    6    7 1    
    13    6   77 1    
    14    6   78 1    
    15    7    8 1    
    16    8    9 1    
    17    8   79 1    
    18    8   80 1    
    19    9   10 ar   
    20    9   14 ar   
    21   10   11 ar   
    22   10   81 1    
    23   11   12 ar   
    24   11   71 1    
    25   12   13 ar   
    26   12   82 1    
    27   13   14 ar   
    28   13   15 1    
    29   14   83 1    
    30   15   16 1    
    31   15   84 1    
    32   15   85 1    
    33   16   17 1    
    34   17   18 1    
    35   17   86 1    
    36   17   87 1    
    37   18   19 1    
    38   18   37 1    
    39   18   88 1    
    40   19   20 am   BACKBONE|DICT|INTERRES
    41   19   89 1    
    42   20   21 2    
    43   20   22 1    
    44   22   23 1    
    45   22   24 1    
    46   22   90 1    
    47   23   91 1    
    48   23   92 1    
    49   23   93 1    
    50   24   25 am   BACKBONE|DICT|INTERRES
    51   24   94 1    
    52   25   26 2    
    53   25   27 1    
    54   27   28 1    
    55   27   29 1    
    56   27   95 1    
    57   28   96 1    
    58   28   97 1    
    59   28   98 1    
    60   29   30 am   BACKBONE|DICT|INTERRES
    61   29   99 1    
    62   30   31 2    
    63   30   32 1    
    64   32   33 1    
    65   32   34 1    
    66   32  100 1    
    67   33  101 1    
    68   33  102 1    
    69   33  103 1    
    70   34   35 am   BACKBONE|DICT|INTERRES
    71   34  104 1    
    72   35   36 2    
    73   37   38 2    
    74   37   39 am   BACKBONE|DICT|INTERRES
    75   39   40 1    
    76   39  105 1    
    77   40   41 1    
    78   40   42 1    
    79   40  106 1    
    80   41  107 1    
    81   41  108 1    
    82   41  109 1    
    83   42   43 2    
    84   42   44 am   BACKBONE|DICT|INTERRES
    85   44   45 1    
    86   44  110 1    
    87   45   46 1    
    88   45   47 1    
    89   45  111 1    
    90   46  112 1    
    91   46  113 1    
    92   46  114 1    
    93   47   48 2    
    94   47   49 am   BACKBONE|DICT|INTERRES
    95   49   50 1    
    96   49  115 1    
    97   50   51 1    
    98   50   52 1    
    99   50  116 1    
   100   51  117 1    
   101   51  118 1    
   102   51  119 1    
   103   52   53 2    
   104   52   54 am   BACKBONE|DICT|INTERRES
   105   54   55 1    
   106   54  120 1    
   107   55   56 1    
   108   55   57 1    
   109   55  121 1    
   110   56  122 1    
   111   56  123 1    
   112   56  124 1    
   113   57   58 2    
   114   57   59 am   BACKBONE|DICT|INTERRES
   115   59   60 1    
   116   59  125 1    
   117   60   61 1    
   118   60   62 1    
   119   60  126 1    
   120   61  127 1    
   121   61  128 1    
   122   61  129 1    
   123   62   63 2    
   124   62   64 am   BACKBONE|DICT|INTERRES
   125   64   65 1    
   126   64  130 1    
   127   65   66 1    
   128   65   69 1    
   129   65  131 1    
   130   66   67 am   BACKBONE|DICT|INTERRES
   131   66   68 2    
   132   67  132 1    
   133   67  133 1    
   134   69   70 1    
   135   69  134 1    
   136   69  135 1    
   137   70   71 1    
   138   71  136 1    
   139   71  137 1    
@<TRIPOS>SUBSTRUCTURE
     1 UNK         1 GROUP             0       ****    0 ROOT    
