@<TRIPOS>MOLECULE
3R137
137   139    1
SMALL
USER_CHARGES


@<TRIPOS>ATOM
      1 CA         26.1418   -6.0787   -7.9730 C.3       0 UNK        -0.2020 
      2 C          26.6562   -4.6507   -7.8102 C.2       0 UNK         0.4855 
      3 O          26.7403   -3.9290   -8.7988 O.2       0 UNK        -0.5197 
      4 N          27.0131   -4.1969   -6.5993 N.am      1 UNK        -0.4892 
      5 CA         26.9151   -4.9198   -5.3234 C.3       1 UNK         0.0835 
      6 C6         27.8656   -4.3128   -4.2570 C.3       12 UNK        -0.0855 
      7 S7         27.4140   -2.6254   -3.7120 S.3       12 UNK        -0.2931 
      8 C8         28.4841   -2.4072   -2.2580 C.3       12 UNK         0.0378 
      9 C9         29.7953   -1.7224   -2.6166 C.ar      12 UNK        -0.0802 
     10 C10        30.8590   -2.4592   -3.1435 C.ar      12 UNK        -0.0944 
     11 C11        32.0760   -1.8377   -3.4373 C.ar      12 UNK        -0.0787 
     12 C12        32.2236   -0.4676   -3.1997 C.ar      12 UNK        -0.0862 
     13 C13        31.1754    0.2846   -2.6588 C.ar      12 UNK        -0.0733 
     14 C14        29.9600   -0.3549   -2.3755 C.ar      12 UNK        -0.0832 
     15 C15        31.4317    1.7549   -2.3164 C.3       12 UNK         0.0240 
     16 S16        29.9408    2.7924   -2.1155 S.3       12 UNK        -0.2522 
     17 C17        29.5684    3.2577   -3.8373 C.3       12 UNK        -0.0967 
     18 CA         28.6155    2.2684   -4.5489 C.3       5 UNK         0.0660 
     19 N          27.3680    2.0322   -3.8110 N.am      5 UNK        -0.4015 
     20 C          26.4503    1.1183   -4.1528 C.2       4 UNK         0.4946 
     21 O          26.5434    0.3856   -5.1414 O.2       4 UNK        -0.5353 
     22 CA         25.1914    1.0505   -3.2892 C.3       4 UNK         0.0277 
     23 CB         23.9662    1.5597   -4.0708 C.3       4 UNK        -0.1981 
     24 N          24.9882   -0.3337   -2.8807 N.am      4 UNK        -0.4209 
     25 C          24.3391   -0.7203   -1.7753 C.2       3 UNK         0.4942 
     26 O          23.8155    0.0673   -0.9843 O.2       3 UNK        -0.5208 
     27 CA         24.2797   -2.2370   -1.5007 C.3       3 UNK         0.0250 
     28 CB         23.2300   -2.6206   -0.4352 C.3       3 UNK        -0.1990 
     29 N          24.1090   -3.0389   -2.7181 N.am      3 UNK        -0.4232 
     30 C          23.0825   -3.0224   -3.5827 C.2       2 UNK         0.4993 
     31 O          22.0771   -2.3257   -3.4369 O.2       2 UNK        -0.5286 
     32 CA         23.2092   -3.9228   -4.8316 C.3       2 UNK         0.0209 
     33 CB         22.3931   -3.3825   -6.0215 C.3       2 UNK        -0.1931 
     34 N          24.6010   -4.0899   -5.2609 N.am      2 UNK        -0.4546 
     35 C          25.4626   -5.0097   -4.8040 C.2       1 UNK         0.5154 
     36 O          25.1598   -5.8767   -3.9850 O.2       1 UNK        -0.5181 
     37 C          28.3650    2.7346   -5.9951 C.2       5 UNK         0.5014 
     38 O          29.1600    2.4037   -6.8725 O.2       5 UNK        -0.5248 
     39 N          27.2605    3.4603   -6.2243 N.am      6 UNK        -0.4434 
     40 CA         26.8086    3.9017   -7.5451 C.3       6 UNK         0.0363 
     41 CB         25.6510    4.8992   -7.3798 C.3       6 UNK        -0.1936 
     42 C          26.3907    2.7425   -8.4676 C.2       6 UNK         0.5081 
     43 O          26.5589    2.8584   -9.6812 O.2       6 UNK        -0.5248 
     44 N          25.8757    1.6459   -7.8900 N.am      7 UNK        -0.4718 
     45 CA         25.5502    0.4187   -8.6209 C.3       7 UNK         0.0273 
     46 CB         24.5544   -0.4323   -7.8133 C.3       7 UNK        -0.1935 
     47 C          26.8211   -0.3793   -8.9458 C.2       7 UNK         0.5018 
     48 O          26.9792   -0.8336  -10.0789 O.2       7 UNK        -0.5186 
     49 N          27.7166   -0.4927   -7.9537 N.am      8 UNK        -0.4240 
     50 CA         29.0047   -1.1820   -8.0669 C.3       8 UNK         0.0235 
     51 CB         29.5778   -1.3909   -6.6552 C.3       8 UNK        -0.2000 
     52 C          30.0475   -0.4563   -8.9357 C.2       8 UNK         0.4941 
     53 O          31.0617   -1.0689   -9.2694 O.2       8 UNK        -0.5273 
     54 N          29.8410    0.8433   -9.2039 N.am      9 UNK        -0.4262 
     55 CA         30.8202    1.8028   -9.7401 C.3       9 UNK         0.0264 
     56 CB         31.1625    1.4859  -11.2108 C.3       9 UNK        -0.1955 
     57 C          32.0662    1.8957   -8.8332 C.2       9 UNK         0.5031 
     58 O          33.1984    1.9098   -9.3214 O.2       9 UNK        -0.5390 
     59 N          31.8165    1.8593   -7.5144 N.am      10 UNK        -0.4204 
     60 CA         32.7688    1.7142   -6.4058 C.3       10 UNK         0.0237 
     61 CB         33.5534    3.0263   -6.2053 C.3       10 UNK        -0.1985 
     62 C          33.6970    0.4814   -6.5141 C.2       10 UNK         0.4970 
     63 O          34.7612    0.4761   -5.8936 O.2       10 UNK        -0.4914 
     64 N          33.2910   -0.5258   -7.3016 N.am      11 UNK        -0.4285 
     65 CA         34.0872   -1.6931   -7.7106 C.3       11 UNK         0.1007 
     66 C          35.3036   -1.3406   -8.6222 C.2       11 UNK         0.5703 
     67 N          35.3294   -0.1844   -9.2777 N.am      11 UNK        -0.7361 
     68 O          36.2291   -2.1364   -8.7670 O.2       11 UNK        -0.4986 
     69 C69        34.4518   -2.6449   -6.5354 C.3       12 UNK        -0.0947 
     70 S70        32.9762   -3.2558   -5.6485 S.3       12 UNK        -0.2240 
     71 C71        33.2497   -2.6601   -3.9495 C.3       12 UNK         0.0194 
     72 H72        26.8707   -6.8035   -7.6125 H         1 UNK         0.0906 
     73 H73        25.2024   -6.2225   -7.4408 H         1 UNK         0.0906 
     74 H74        25.9584   -6.2971   -9.0250 H         1 UNK         0.0906 
     75 H75        27.3567   -3.2503   -6.5223 H         1 UNK         0.3140 
     76 H76        27.2477   -5.9464   -5.4872 H         1 UNK         0.1085 
     77 H77        28.8846   -4.2893   -4.6461 H         1 UNK         0.0836 
     78 H78        27.8985   -4.9658   -3.3826 H         1 UNK         0.0836 
     79 H79        28.6798   -3.3681   -1.7803 H         1 UNK         0.0731 
     80 H80        27.9425   -1.8129   -1.5205 H         1 UNK         0.0731 
     81 H81        30.7469   -3.5210   -3.3130 H         1 UNK         0.1312 
     82 H82        33.1737    0.0082   -3.4030 H         1 UNK         0.1406 
     83 H83        29.1411    0.1995   -1.9403 H         1 UNK         0.1631 
     84 H84        32.0879    2.2083   -3.0606 H         1 UNK         0.0717 
     85 H85        31.9817    1.7818   -1.3749 H         1 UNK         0.0717 
     86 H86        29.1316    4.2583   -3.8168 H         1 UNK         0.0934 
     87 H87        30.5053    3.3556   -4.3898 H         1 UNK         0.0934 
     88 H88        29.1256    1.3058   -4.6182 H         1 UNK         0.0739 
     89 H89        27.2289    2.5930   -2.9825 H         1 UNK         0.3093 
     90 H90        25.3346    1.6718   -2.4024 H         1 UNK         0.0818 
     91 H91        24.1117    2.5871   -4.4066 H         1 UNK         0.0819 
     92 H92        23.7704    0.9494   -4.9535 H         1 UNK         0.0819 
     93 H93        23.0684    1.5454   -3.4526 H         1 UNK         0.0819 
     94 H94        25.4407   -1.0247   -3.4681 H         1 UNK         0.3041 
     95 H95        25.2595   -2.5034   -1.1015 H         1 UNK         0.0784 
     96 H96        23.4404   -2.1299    0.5159 H         1 UNK         0.0793 
     97 H97        22.2230   -2.3286   -0.7346 H         1 UNK         0.0793 
     98 H98        23.2270   -3.6947   -0.2497 H         1 UNK         0.0793 
     99 H99        24.8825   -3.6498   -2.9426 H         1 UNK         0.3024 
    100 H100       22.8000   -4.8983   -4.5582 H         1 UNK         0.1171 
    101 H101       22.7086   -2.3770   -6.3025 H         1 UNK         0.0786 
    102 H102       22.4942   -4.0239   -6.8972 H         1 UNK         0.0786 
    103 H103       21.3303   -3.3353   -5.7805 H         1 UNK         0.0786 
    104 H104       24.9581   -3.4022   -5.9089 H         1 UNK         0.2977 
    105 H105       26.6714    3.6981   -5.4402 H         1 UNK         0.3127 
    106 H106       27.6412    4.4194   -8.0266 H         1 UNK         0.0770 
    107 H107       24.7918    4.4445   -6.8849 H         1 UNK         0.0814 
    108 H108       25.3113    5.2652   -8.3498 H         1 UNK         0.0814 
    109 H109       25.9552    5.7688   -6.7970 H         1 UNK         0.0814 
    110 H110       25.8217    1.5994   -6.8808 H         1 UNK         0.2983 
    111 H111       25.0725    0.6890   -9.5656 H         1 UNK         0.0947 
    112 H112       24.2752   -1.3292   -8.3679 H         1 UNK         0.0806 
    113 H113       23.6374    0.1194   -7.6067 H         1 UNK         0.0806 
    114 H114       24.9698   -0.7601   -6.8605 H         1 UNK         0.0806 
    115 H115       27.4823   -0.0979   -7.0490 H         1 UNK         0.3000 
    116 H116       28.8299   -2.1598   -8.5203 H         1 UNK         0.0850 
    117 H117       29.7900   -0.4452   -6.1562 H         1 UNK         0.0810 
    118 H118       30.5097   -1.9554   -6.6894 H         1 UNK         0.0810 
    119 H119       28.8923   -1.9509   -6.0254 H         1 UNK         0.0810 
    120 H120       29.0051    1.2596   -8.8132 H         1 UNK         0.3040 
    121 H121       30.3420    2.7830   -9.7098 H         1 UNK         0.0766 
    122 H122       31.6987    0.5416  -11.3093 H         1 UNK         0.0812 
    123 H123       30.2625    1.4264  -11.8226 H         1 UNK         0.0812 
    124 H124       31.7959    2.2637  -11.6389 H         1 UNK         0.0812 
    125 H125       30.8336    1.9110   -7.2436 H         1 UNK         0.3205 
    126 H126       32.1624    1.5496   -5.5146 H         1 UNK         0.0754 
    127 H127       34.1672    2.9865   -5.3046 H         1 UNK         0.0769 
    128 H128       32.8807    3.8773   -6.0980 H         1 UNK         0.0769 
    129 H129       34.2183    3.2280   -7.0459 H         1 UNK         0.0769 
    130 H130       32.4150   -0.4334   -7.8009 H         1 UNK         0.2981 
    131 H131       33.4275   -2.2573   -8.3703 H         1 UNK         0.0541 
    132 H132       34.5674    0.4826   -9.1992 H         1 UNK         0.3459 
    133 H133       36.1161    0.0247   -9.8708 H         1 UNK         0.3459 
    134 H134       35.1496   -2.1615   -5.8518 H         1 UNK         0.0612 
    135 H135       34.9727   -3.5263   -6.9127 H         1 UNK         0.0612 
    136 H136       34.1712   -2.0813   -3.8833 H         1 UNK         0.0624 
    137 H137       33.3921   -3.5238   -3.2986 H         1 UNK         0.0624 
@<TRIPOS>BOND
     1    1    2 1    
     2    1   72 1    
     3    1   73 1    
     4    1   74 1    
     5    2    3 2    
     6    2    4 am   BACKBONE|DICT|INTERRES
     7    4    5 1    
     8    4   75 1    
     9    5    6 1    
    10    5   35 1    
    11    5   76 1    
    12    6    7 1    
    13    6   77 1    
    14    6   78 1    
    15    7    8 1    
    16    8    9 1    
    17    8   79 1    
    18    8   80 1    
    19    9   10 ar   
    20    9   14 ar   
    21   10   11 ar   
    22   10   81 1    
    23   11   12 ar   
    24   11   71 1    
    25   12   13 ar   
    26   12   82 1    
    27   13   14 ar   
    28   13   15 1    
    29   14   83 1    
    30   15   16 1    
    31   15   84 1    
    32   15   85 1    
    33   16   17 1    
    34   17   18 1    
    35   17   86 1    
    36   17   87 1    
    37   18   19 1    
    38   18   37 1    
    39   18   88 1    
    40   19   20 am   BACKBONE|DICT|INTERRES
    41   19   89 1    
    42   20   21 2    
    43   20   22 1    
    44   22   23 1    
    45   22   24 1    
    46   22   90 1    
    47   23   91 1    
    48   23   92 1    
    49   23   93 1    
    50   24   25 am   BACKBONE|DICT|INTERRES
    51   24   94 1    
    52   25   26 2    
    53   25   27 1    
    54   27   28 1    
    55   27   29 1    
    56   27   95 1    
    57   28   96 1    
    58   28   97 1    
    59   28   98 1    
    60   29   30 am   BACKBONE|DICT|INTERRES
    61   29   99 1    
    62   30   31 2    
    63   30   32 1    
    64   32   33 1    
    65   32   34 1    
    66   32  100 1    
    67   33  101 1    
    68   33  102 1    
    69   33  103 1    
    70   34   35 am   BACKBONE|DICT|INTERRES
    71   34  104 1    
    72   35   36 2    
    73   37   38 2    
    74   37   39 am   BACKBONE|DICT|INTERRES
    75   39   40 1    
    76   39  105 1    
    77   40   41 1    
    78   40   42 1    
    79   40  106 1    
    80   41  107 1    
    81   41  108 1    
    82   41  109 1    
    83   42   43 2    
    84   42   44 am   BACKBONE|DICT|INTERRES
    85   44   45 1    
    86   44  110 1    
    87   45   46 1    
    88   45   47 1    
    89   45  111 1    
    90   46  112 1    
    91   46  113 1    
    92   46  114 1    
    93   47   48 2    
    94   47   49 am   BACKBONE|DICT|INTERRES
    95   49   50 1    
    96   49  115 1    
    97   50   51 1    
    98   50   52 1    
    99   50  116 1    
   100   51  117 1    
   101   51  118 1    
   102   51  119 1    
   103   52   53 2    
   104   52   54 am   BACKBONE|DICT|INTERRES
   105   54   55 1    
   106   54  120 1    
   107   55   56 1    
   108   55   57 1    
   109   55  121 1    
   110   56  122 1    
   111   56  123 1    
   112   56  124 1    
   113   57   58 2    
   114   57   59 am   BACKBONE|DICT|INTERRES
   115   59   60 1    
   116   59  125 1    
   117   60   61 1    
   118   60   62 1    
   119   60  126 1    
   120   61  127 1    
   121   61  128 1    
   122   61  129 1    
   123   62   63 2    
   124   62   64 am   BACKBONE|DICT|INTERRES
   125   64   65 1    
   126   64  130 1    
   127   65   66 1    
   128   65   69 1    
   129   65  131 1    
   130   66   67 am   BACKBONE|DICT|INTERRES
   131   66   68 2    
   132   67  132 1    
   133   67  133 1    
   134   69   70 1    
   135   69  134 1    
   136   69  135 1    
   137   70   71 1    
   138   71  136 1    
   139   71  137 1    
@<TRIPOS>SUBSTRUCTURE
     1 UNK         1 GROUP             0       ****    0 ROOT    
