@<TRIPOS>MOLECULE
3R137
137   139    1
SMALL
USER_CHARGES


@<TRIPOS>ATOM
      1 CA         24.3505   -5.3807    0.1293 C.3       0 UNK        -0.2020 
      2 C          25.7269   -4.7373    0.2018 C.2       0 UNK         0.4855 
      3 O          26.1904   -4.3991    1.2922 O.2       0 UNK        -0.5197 
      4 N          26.3884   -4.5635   -0.9498 N.am      1 UNK        -0.4892 
      5 CA         27.6925   -3.9063   -1.0815 C.3       1 UNK         0.0835 
      6 C6         28.4384   -4.3991   -2.3505 C.3       12 UNK        -0.0855 
      7 S7         30.2490   -4.1832   -2.2269 S.3       12 UNK        -0.2931 
      8 C8         30.5610   -2.8253   -3.4008 C.3       12 UNK         0.0378 
      9 C9         30.8823   -3.3261   -4.8026 C.ar      12 UNK        -0.0802 
     10 C10        32.1989   -3.3081   -5.2724 C.ar      12 UNK        -0.0944 
     11 C11        32.4904   -3.6931   -6.5843 C.ar      12 UNK        -0.0787 
     12 C12        31.4550   -4.1082   -7.4277 C.ar      12 UNK        -0.0862 
     13 C13        30.1369   -4.1481   -6.9652 C.ar      12 UNK        -0.0733 
     14 C14        29.8610   -3.7624   -5.6501 C.ar      12 UNK        -0.0832 
     15 C15        29.0119   -4.6137   -7.8810 C.3       12 UNK         0.0240 
     16 S16        28.1951   -3.2223   -8.7279 S.3       12 UNK        -0.2522 
     17 C17        27.4117   -2.3721   -7.3187 C.3       12 UNK        -0.0967 
     18 CA         26.2180   -1.4700   -7.7230 C.3       5 UNK         0.0660 
     19 N          25.2312   -1.3540   -6.6403 N.am      5 UNK        -0.4015 
     20 C          25.4468   -0.7916   -5.4423 C.2       4 UNK         0.4946 
     21 O          26.4982   -0.2354   -5.1172 O.2       4 UNK        -0.5353 
     22 CA         24.3023   -0.8959   -4.4271 C.3       4 UNK         0.0277 
     23 CB         24.1824   -2.3284   -3.8724 C.3       4 UNK        -0.1981 
     24 N          24.5729    0.0222   -3.3262 N.am      4 UNK        -0.4209 
     25 C          23.6564    0.6490   -2.5808 C.2       3 UNK         0.4942 
     26 O          22.4413    0.5224   -2.7469 O.2       3 UNK        -0.5208 
     27 CA         24.1938    1.5745   -1.4670 C.3       3 UNK         0.0250 
     28 CB         23.1169    1.9526   -0.4265 C.3       3 UNK        -0.1990 
     29 N          25.3974    1.0500   -0.8034 N.am      3 UNK        -0.4232 
     30 C          25.5126   -0.1161   -0.1492 C.2       2 UNK         0.4993 
     31 O          24.5856   -0.9091    0.0345 O.2       2 UNK        -0.5286 
     32 CA         26.9058   -0.4462    0.4125 C.3       2 UNK         0.0209 
     33 CB         26.9670   -0.1548    1.9207 C.3       2 UNK        -0.1931 
     34 N          27.2435   -1.8506    0.1781 N.am      2 UNK        -0.4546 
     35 C          27.5058   -2.3732   -1.0264 C.2       1 UNK         0.5154 
     36 O          27.5528   -1.6999   -2.0570 O.2       1 UNK        -0.5181 
     37 C          26.6427   -0.0885   -8.2723 C.2       5 UNK         0.5014 
     38 O          27.8344    0.1869   -8.4446 O.2       5 UNK        -0.5248 
     39 N          25.6428    0.7635   -8.5460 N.am      6 UNK        -0.4434 
     40 CA         25.8102    2.1252   -9.0655 C.3       6 UNK         0.0363 
     41 CB         24.4419    2.8215   -9.1281 C.3       6 UNK        -0.1936 
     42 C          26.5099    2.1876  -10.4346 C.2       6 UNK         0.5081 
     43 O          27.2183    3.1569  -10.7015 O.2       6 UNK        -0.5248 
     44 N          26.3542    1.1344  -11.2502 N.am      7 UNK        -0.4718 
     45 CA         27.0310    0.9591  -12.5403 C.3       7 UNK         0.0273 
     46 CB         26.4584   -0.2804  -13.2464 C.3       7 UNK        -0.1935 
     47 C          28.5645    0.8532  -12.4294 C.2       7 UNK         0.5018 
     48 O          29.2602    1.2473  -13.3659 O.2       7 UNK        -0.5186 
     49 N          29.0592    0.3488  -11.2905 N.am      8 UNK        -0.4240 
     50 CA         30.4821    0.2921  -10.9462 C.3       8 UNK         0.0235 
     51 CB         30.7900   -1.0946  -10.3523 C.3       8 UNK        -0.2000 
     52 C          30.8713    1.3901   -9.9408 C.2       8 UNK         0.4941 
     53 O          32.0206    1.4054   -9.4999 O.2       8 UNK        -0.5273 
     54 N          29.9116    2.2409   -9.5381 N.am      9 UNK        -0.4262 
     55 CA         29.9883    3.2242   -8.4486 C.3       9 UNK         0.0264 
     56 CB         30.8799    4.4137   -8.8619 C.3       9 UNK        -0.1955 
     57 C          30.4174    2.5947   -7.1057 C.2       9 UNK         0.5031 
     58 O          31.1828    3.2088   -6.3585 O.2       9 UNK        -0.5390 
     59 N          29.9771    1.3478   -6.8615 N.am      10 UNK        -0.4204 
     60 CA         30.3895    0.4606   -5.7631 C.3       10 UNK         0.0237 
     61 CB         29.8059    0.9641   -4.4258 C.3       10 UNK        -0.1985 
     62 C          31.9164    0.2241   -5.6839 C.2       10 UNK         0.4970 
     63 O          32.4263   -0.0633   -4.5994 O.2       10 UNK        -0.4914 
     64 N          32.6214    0.3846   -6.8150 N.am      11 UNK        -0.4285 
     65 CA         34.0877    0.4130   -6.9303 C.3       11 UNK         0.1007 
     66 C          34.7724    1.5634   -6.1264 C.2       11 UNK         0.5703 
     67 N          34.0714    2.6378   -5.7777 N.am      11 UNK        -0.7361 
     68 O          35.9668    1.5062   -5.8418 O.2       11 UNK        -0.4986 
     69 C69        34.7436   -0.9817   -6.7174 C.3       12 UNK        -0.0947 
     70 S70        34.2849   -2.1594   -8.0347 S.3       12 UNK        -0.2240 
     71 C71        33.9226   -3.6730   -7.0939 C.3       12 UNK         0.0194 
     72 H72        24.0795   -5.6530   -0.8905 H         1 UNK         0.0906 
     73 H73        24.3250   -6.2830    0.7396 H         1 UNK         0.0906 
     74 H74        23.5963   -4.6911    0.5078 H         1 UNK         0.0906 
     75 H75        25.9488   -4.8398   -1.8164 H         1 UNK         0.3140 
     76 H76        28.2974   -4.1901   -0.2166 H         1 UNK         0.1085 
     77 H77        28.2717   -5.4696   -2.4818 H         1 UNK         0.0836 
     78 H78        28.0396   -3.9322   -3.2506 H         1 UNK         0.0836 
     79 H79        31.3894   -2.2256   -3.0205 H         1 UNK         0.0731 
     80 H80        29.7044   -2.1529   -3.4412 H         1 UNK         0.0731 
     81 H81        32.9949   -2.9711   -4.6227 H         1 UNK         0.1312 
     82 H82        31.6769   -4.3999   -8.4453 H         1 UNK         0.1406 
     83 H83        28.8437   -3.7848   -5.2925 H         1 UNK         0.1631 
     84 H84        28.2737   -5.1829   -7.3138 H         1 UNK         0.0717 
     85 H85        29.4049   -5.2977   -8.6346 H         1 UNK         0.0717 
     86 H86        27.0548   -3.1467   -6.6388 H         1 UNK         0.0934 
     87 H87        28.1621   -1.8086   -6.7630 H         1 UNK         0.0934 
     88 H88        25.6882   -1.9648   -8.5386 H         1 UNK         0.0739 
     89 H89        24.3337   -1.7833   -6.8177 H         1 UNK         0.3093 
     90 H90        23.3738   -0.6100   -4.9260 H         1 UNK         0.0818 
     91 H91        23.3794   -2.4026   -3.1386 H         1 UNK         0.0819 
     92 H92        23.9639   -3.0462   -4.6636 H         1 UNK         0.0819 
     93 H93        25.1059   -2.6456   -3.3858 H         1 UNK         0.0819 
     94 H94        25.5590    0.2030   -3.1780 H         1 UNK         0.3041 
     95 H95        24.4992    2.4944   -1.9679 H         1 UNK         0.0784 
     96 H96        22.2779    2.4645   -0.8994 H         1 UNK         0.0793 
     97 H97        22.7169    1.0735    0.0797 H         1 UNK         0.0793 
     98 H98        23.5170    2.6240    0.3332 H         1 UNK         0.0793 
     99 H99        26.2223    1.6276   -0.8934 H         1 UNK         0.3024 
    100 H100       27.6526    0.1705   -0.0934 H         1 UNK         0.1171 
    101 H101       26.7384    0.8919    2.1261 H         1 UNK         0.0786 
    102 H102       26.2502   -0.7604    2.4772 H         1 UNK         0.0786 
    103 H103       27.9600   -0.3545    2.3241 H         1 UNK         0.0786 
    104 H104       27.0918   -2.4960    0.9451 H         1 UNK         0.2977 
    105 H105       24.6953    0.4628   -8.3680 H         1 UNK         0.3127 
    106 H106       26.4378    2.6692   -8.3563 H         1 UNK         0.0770 
    107 H107       23.7555    2.3063   -9.8013 H         1 UNK         0.0814 
    108 H108       23.9755    2.8716   -8.1440 H         1 UNK         0.0814 
    109 H109       24.5425    3.8465   -9.4882 H         1 UNK         0.0814 
    110 H110       25.7493    0.3845  -10.9481 H         1 UNK         0.2983 
    111 H111       26.8108    1.8366  -13.1524 H         1 UNK         0.0947 
    112 H112       26.9243   -0.4230  -14.2226 H         1 UNK         0.0806 
    113 H113       25.3856   -0.1829  -13.4138 H         1 UNK         0.0806 
    114 H114       26.6287   -1.1899  -12.6687 H         1 UNK         0.0806 
    115 H115       28.4162    0.0691  -10.5585 H         1 UNK         0.3000 
    116 H116       31.0979    0.4296  -11.8374 H         1 UNK         0.0850 
    117 H117       31.8596   -1.2190  -10.1770 H         1 UNK         0.0810 
    118 H118       30.4767   -1.8962  -11.0211 H         1 UNK         0.0810 
    119 H119       30.2889   -1.2406   -9.3945 H         1 UNK         0.0810 
    120 H120       29.0058    2.1729   -9.9856 H         1 UNK         0.3040 
    121 H121       28.9754    3.6009   -8.3001 H         1 UNK         0.0766 
    122 H122       30.8523    5.2039   -8.1107 H         1 UNK         0.0812 
    123 H123       30.5457    4.8506   -9.8028 H         1 UNK         0.0812 
    124 H124       31.9218    4.1144   -8.9814 H         1 UNK         0.0812 
    125 H125       29.3217    0.9380   -7.5260 H         1 UNK         0.3205 
    126 H126       29.9476   -0.5132   -5.9743 H         1 UNK         0.0754 
    127 H127       29.9782    0.2472   -3.6228 H         1 UNK         0.0769 
    128 H128       28.7288    1.1131   -4.4954 H         1 UNK         0.0769 
    129 H129       30.2559    1.9090   -4.1201 H         1 UNK         0.0769 
    130 H130       32.1373    0.6579   -7.6636 H         1 UNK         0.2981 
    131 H131       34.2772    0.6914   -7.9674 H         1 UNK         0.0541 
    132 H132       34.5288    3.3776   -5.2701 H         1 UNK         0.3459 
    133 H133       33.0861    2.7204   -6.0090 H         1 UNK         0.3459 
    134 H134       34.4864   -1.3834   -5.7373 H         1 UNK         0.0612 
    135 H135       35.8320   -0.9087   -6.7372 H         1 UNK         0.0612 
    136 H136       34.6315   -3.7786   -6.2712 H         1 UNK         0.0624 
    137 H137       34.0860   -4.5329   -7.7450 H         1 UNK         0.0624 
@<TRIPOS>BOND
     1    1    2 1    
     2    1   72 1    
     3    1   73 1    
     4    1   74 1    
     5    2    3 2    
     6    2    4 am   BACKBONE|DICT|INTERRES
     7    4    5 1    
     8    4   75 1    
     9    5    6 1    
    10    5   35 1    
    11    5   76 1    
    12    6    7 1    
    13    6   77 1    
    14    6   78 1    
    15    7    8 1    
    16    8    9 1    
    17    8   79 1    
    18    8   80 1    
    19    9   10 ar   
    20    9   14 ar   
    21   10   11 ar   
    22   10   81 1    
    23   11   12 ar   
    24   11   71 1    
    25   12   13 ar   
    26   12   82 1    
    27   13   14 ar   
    28   13   15 1    
    29   14   83 1    
    30   15   16 1    
    31   15   84 1    
    32   15   85 1    
    33   16   17 1    
    34   17   18 1    
    35   17   86 1    
    36   17   87 1    
    37   18   19 1    
    38   18   37 1    
    39   18   88 1    
    40   19   20 am   BACKBONE|DICT|INTERRES
    41   19   89 1    
    42   20   21 2    
    43   20   22 1    
    44   22   23 1    
    45   22   24 1    
    46   22   90 1    
    47   23   91 1    
    48   23   92 1    
    49   23   93 1    
    50   24   25 am   BACKBONE|DICT|INTERRES
    51   24   94 1    
    52   25   26 2    
    53   25   27 1    
    54   27   28 1    
    55   27   29 1    
    56   27   95 1    
    57   28   96 1    
    58   28   97 1    
    59   28   98 1    
    60   29   30 am   BACKBONE|DICT|INTERRES
    61   29   99 1    
    62   30   31 2    
    63   30   32 1    
    64   32   33 1    
    65   32   34 1    
    66   32  100 1    
    67   33  101 1    
    68   33  102 1    
    69   33  103 1    
    70   34   35 am   BACKBONE|DICT|INTERRES
    71   34  104 1    
    72   35   36 2    
    73   37   38 2    
    74   37   39 am   BACKBONE|DICT|INTERRES
    75   39   40 1    
    76   39  105 1    
    77   40   41 1    
    78   40   42 1    
    79   40  106 1    
    80   41  107 1    
    81   41  108 1    
    82   41  109 1    
    83   42   43 2    
    84   42   44 am   BACKBONE|DICT|INTERRES
    85   44   45 1    
    86   44  110 1    
    87   45   46 1    
    88   45   47 1    
    89   45  111 1    
    90   46  112 1    
    91   46  113 1    
    92   46  114 1    
    93   47   48 2    
    94   47   49 am   BACKBONE|DICT|INTERRES
    95   49   50 1    
    96   49  115 1    
    97   50   51 1    
    98   50   52 1    
    99   50  116 1    
   100   51  117 1    
   101   51  118 1    
   102   51  119 1    
   103   52   53 2    
   104   52   54 am   BACKBONE|DICT|INTERRES
   105   54   55 1    
   106   54  120 1    
   107   55   56 1    
   108   55   57 1    
   109   55  121 1    
   110   56  122 1    
   111   56  123 1    
   112   56  124 1    
   113   57   58 2    
   114   57   59 am   BACKBONE|DICT|INTERRES
   115   59   60 1    
   116   59  125 1    
   117   60   61 1    
   118   60   62 1    
   119   60  126 1    
   120   61  127 1    
   121   61  128 1    
   122   61  129 1    
   123   62   63 2    
   124   62   64 am   BACKBONE|DICT|INTERRES
   125   64   65 1    
   126   64  130 1    
   127   65   66 1    
   128   65   69 1    
   129   65  131 1    
   130   66   67 am   BACKBONE|DICT|INTERRES
   131   66   68 2    
   132   67  132 1    
   133   67  133 1    
   134   69   70 1    
   135   69  134 1    
   136   69  135 1    
   137   70   71 1    
   138   71  136 1    
   139   71  137 1    
@<TRIPOS>SUBSTRUCTURE
     1 UNK         1 GROUP             0       ****    0 ROOT    
