@<TRIPOS>MOLECULE
3R137
137   139    1
SMALL
USER_CHARGES


@<TRIPOS>ATOM
      1 CA         27.1415   -6.9210   -2.0839 C.3       0 UNK        -0.2020 
      2 C          27.0222   -5.8870   -0.9745 C.2       0 UNK         0.4855 
      3 O          26.2578   -6.0851   -0.0301 O.2       0 UNK        -0.5197 
      4 N          27.7668   -4.7798   -1.0865 N.am      1 UNK        -0.4892 
      5 CA         27.7318   -3.6500   -0.1502 C.3       1 UNK         0.0835 
      6 C6         29.0421   -2.8269   -0.2017 C.3       12 UNK        -0.0855 
      7 S7         30.5002   -3.7162    0.4673 S.3       12 UNK        -0.2931 
      8 C8         31.1975   -4.6769   -0.9280 C.3       12 UNK         0.0378 
      9 C9         31.0687   -3.9734   -2.2706 C.ar      12 UNK        -0.0802 
     10 C10        31.7229   -2.7595   -2.5029 C.ar      12 UNK        -0.0944 
     11 C11        31.5070   -2.0469   -3.6872 C.ar      12 UNK        -0.0787 
     12 C12        30.6366   -2.5760   -4.6481 C.ar      12 UNK        -0.0862 
     13 C13        29.9814   -3.7897   -4.4256 C.ar      12 UNK        -0.0733 
     14 C14        30.2289   -4.5025   -3.2529 C.ar      12 UNK        -0.0832 
     15 C15        28.9450   -4.2909   -5.4142 C.3       12 UNK         0.0240 
     16 S16        27.2746   -3.8110   -4.8581 S.3       12 UNK        -0.2522 
     17 C17        26.4128   -3.6593   -6.4597 C.3       12 UNK        -0.0967 
     18 CA         26.2878   -2.2273   -7.0544 C.3       5 UNK         0.0660 
     19 N          25.1166   -1.4839   -6.5829 N.am      5 UNK        -0.4015 
     20 C          24.5556   -0.4876   -7.2884 C.2       4 UNK         0.4946 
     21 O          24.9596   -0.1218   -8.3934 O.2       4 UNK        -0.5353 
     22 CA         23.3660    0.2467   -6.6507 C.3       4 UNK         0.0277 
     23 CB         22.0780   -0.5816   -6.7848 C.3       4 UNK        -0.1981 
     24 N          23.5956    0.5815   -5.2456 N.am      4 UNK        -0.4209 
     25 C          24.5366    1.4315   -4.8089 C.2       3 UNK         0.4942 
     26 O          25.2871    2.0652   -5.5498 O.2       3 UNK        -0.5208 
     27 CA         24.6938    1.5605   -3.2833 C.3       3 UNK         0.0250 
     28 CB         23.7617    2.6525   -2.7348 C.3       3 UNK        -0.1990 
     29 N          24.4548    0.3013   -2.5677 N.am      3 UNK        -0.4232 
     30 C          25.1759   -0.8145   -2.7427 C.2       2 UNK         0.4993 
     31 O          26.1189   -0.9021   -3.5324 O.2       2 UNK        -0.5286 
     32 CA         24.7147   -2.0577   -1.9739 C.3       2 UNK         0.0209 
     33 CB         23.8052   -2.9212   -2.8645 C.3       2 UNK        -0.1931 
     34 N          25.8690   -2.8556   -1.5682 N.am      2 UNK        -0.4546 
     35 C          26.5069   -2.7387   -0.3952 C.2       1 UNK         0.5154 
     36 O          26.1577   -1.9535    0.4881 O.2       1 UNK        -0.5181 
     37 C          27.5661   -1.3675   -6.9766 C.2       5 UNK         0.5014 
     38 O          28.3926   -1.4619   -7.8811 O.2       5 UNK        -0.5248 
     39 N          27.6867   -0.5102   -5.9495 N.am      6 UNK        -0.4434 
     40 CA         28.7593    0.4810   -5.8177 C.3       6 UNK         0.0363 
     41 CB         28.6689    1.1787   -4.4534 C.3       6 UNK        -0.1936 
     42 C          28.7840    1.5011   -6.9655 C.2       6 UNK         0.5081 
     43 O          29.8642    1.8195   -7.4654 O.2       6 UNK        -0.5248 
     44 N          27.5995    1.9613   -7.3908 N.am      7 UNK        -0.4718 
     45 CA         27.4212    2.8120   -8.5672 C.3       7 UNK         0.0273 
     46 CB         25.9884    3.3671   -8.5980 C.3       7 UNK        -0.1935 
     47 C          27.7578    2.0790   -9.8762 C.2       7 UNK         0.5018 
     48 O          28.4699    2.6416  -10.7076 O.2       7 UNK        -0.5186 
     49 N          27.2689    0.8381  -10.0275 N.am      8 UNK        -0.4240 
     50 CA         27.5116   -0.0123  -11.1989 C.3       8 UNK         0.0235 
     51 CB         26.6169   -1.2598  -11.1345 C.3       8 UNK        -0.2000 
     52 C          28.9879   -0.4122  -11.3684 C.2       8 UNK         0.4941 
     53 O          29.5038   -0.3558  -12.4852 O.2       8 UNK        -0.5273 
     54 N          29.6453   -0.7878  -10.2625 N.am      9 UNK        -0.4262 
     55 CA         31.0729   -1.1163  -10.2061 C.3       9 UNK         0.0264 
     56 CB         31.3599   -1.8939   -8.9105 C.3       9 UNK        -0.1955 
     57 C          31.9877    0.1184  -10.2937 C.2       9 UNK         0.5031 
     58 O          33.1762   -0.0445  -10.5742 O.2       9 UNK        -0.5390 
     59 N          31.4264    1.3112  -10.0441 N.am      10 UNK        -0.4204 
     60 CA         32.0831    2.6185   -9.9773 C.3       10 UNK         0.0237 
     61 CB         32.6342    3.0367  -11.3575 C.3       10 UNK        -0.1985 
     62 C          33.1335    2.6704   -8.8535 C.2       10 UNK         0.4970 
     63 O          34.2904    3.0176   -9.1007 O.2       10 UNK        -0.4914 
     64 N          32.7034    2.3154   -7.6351 N.am      11 UNK        -0.4285 
     65 CA         33.5314    2.3450   -6.4174 C.3       11 UNK         0.1007 
     66 C          33.9659    3.7711   -5.9640 C.2       11 UNK         0.5703 
     67 N          33.3048    4.8391   -6.3962 N.am      11 UNK        -0.7361 
     68 O          34.9243    3.9080   -5.2072 O.2       11 UNK        -0.4986 
     69 C69        32.8548    1.5994   -5.2393 C.3       12 UNK        -0.0947 
     70 S70        32.5811   -0.1782   -5.5354 S.3       12 UNK        -0.2240 
     71 C71        32.1267   -0.6592   -3.8352 C.3       12 UNK         0.0194 
     72 H72        26.1635   -7.3457   -2.3092 H         1 UNK         0.0906 
     73 H73        27.5328   -6.4875   -3.0037 H         1 UNK         0.0906 
     74 H74        27.8012   -7.7310   -1.7743 H         1 UNK         0.0906 
     75 H75        28.3746   -4.6554   -1.8826 H         1 UNK         0.3140 
     76 H76        27.6226   -4.0440    0.8630 H         1 UNK         0.1085 
     77 H77        28.9389   -1.9307    0.4137 H         1 UNK         0.0836 
     78 H78        29.2292   -2.4537   -1.2090 H         1 UNK         0.0836 
     79 H79        30.7049   -5.6502   -0.9542 H         1 UNK         0.0731 
     80 H80        32.2507   -4.8777   -0.7272 H         1 UNK         0.0731 
     81 H81        32.3550   -2.3430   -1.7302 H         1 UNK         0.1312 
     82 H82        30.4343   -2.0347   -5.5588 H         1 UNK         0.1406 
     83 H83        29.7286   -5.4463   -3.0893 H         1 UNK         0.1631 
     84 H84        29.0003   -5.3761   -5.5121 H         1 UNK         0.0717 
     85 H85        29.1510   -3.8795   -6.4036 H         1 UNK         0.0717 
     86 H86        26.9237   -4.3002   -7.1806 H         1 UNK         0.0934 
     87 H87        25.4217   -4.1029   -6.3526 H         1 UNK         0.0934 
     88 H88        26.1176   -2.3906   -8.1205 H         1 UNK         0.0739 
     89 H89        24.7834   -1.6925   -5.6538 H         1 UNK         0.3093 
     90 H90        23.2270    1.1825   -7.1967 H         1 UNK         0.0818 
     91 H91        21.2118   -0.0290   -6.4203 H         1 UNK         0.0819 
     92 H92        21.8834   -0.8314   -7.8289 H         1 UNK         0.0819 
     93 H93        22.1355   -1.5195   -6.2309 H         1 UNK         0.0819 
     94 H94        23.0163    0.1178   -4.5617 H         1 UNK         0.3041 
     95 H95        25.7237    1.8618   -3.0833 H         1 UNK         0.0784 
     96 H96        23.9372    3.6035   -3.2400 H         1 UNK         0.0793 
     97 H97        22.7104    2.3980   -2.8758 H         1 UNK         0.0793 
     98 H98        23.9281    2.8188   -1.6703 H         1 UNK         0.0793 
     99 H99        23.6887    0.2938   -1.9092 H         1 UNK         0.3024 
    100 H100       24.1505   -1.7488   -1.0906 H         1 UNK         0.1171 
    101 H101       22.9202   -2.3670   -3.1796 H         1 UNK         0.0786 
    102 H102       24.3201   -3.2582   -3.7651 H         1 UNK         0.0786 
    103 H103       23.4575   -3.8060   -2.3308 H         1 UNK         0.0786 
    104 H104       26.2615   -3.4672   -2.2698 H         1 UNK         0.2977 
    105 H105       27.0096   -0.5566   -5.1907 H         1 UNK         0.3127 
    106 H106       29.7070   -0.0488   -5.8594 H         1 UNK         0.0770 
    107 H107       27.7448    1.7465   -4.3530 H         1 UNK         0.0814 
    108 H108       29.4960    1.8760   -4.3166 H         1 UNK         0.0814 
    109 H109       28.7117    0.4572   -3.6370 H         1 UNK         0.0814 
    110 H110       26.7616    1.7086   -6.8749 H         1 UNK         0.2983 
    111 H111       28.1088    3.6559   -8.4757 H         1 UNK         0.0947 
    112 H112       25.8397    4.0176   -9.4609 H         1 UNK         0.0806 
    113 H113       25.7743    3.9565   -7.7062 H         1 UNK         0.0806 
    114 H114       25.2453    2.5713   -8.6557 H         1 UNK         0.0806 
    115 H115       26.6497    0.4682   -9.3117 H         1 UNK         0.3000 
    116 H116       27.2240    0.5623  -12.0820 H         1 UNK         0.0850 
    117 H117       26.8698   -1.8930  -10.2846 H         1 UNK         0.0810 
    118 H118       26.7284   -1.8653  -12.0350 H         1 UNK         0.0810 
    119 H119       25.5635   -0.9911  -11.0522 H         1 UNK         0.0810 
    120 H120       29.1286   -0.8790   -9.3865 H         1 UNK         0.3040 
    121 H121       31.3103   -1.7626  -11.0537 H         1 UNK         0.0766 
    122 H122       31.1389   -1.2928   -8.0275 H         1 UNK         0.0812 
    123 H123       32.4089   -2.1865   -8.8506 H         1 UNK         0.0812 
    124 H124       30.7638   -2.8047   -8.8519 H         1 UNK         0.0812 
    125 H125       30.4474    1.3134   -9.7882 H         1 UNK         0.3205 
    126 H126       31.3054    3.3339   -9.7050 H         1 UNK         0.0754 
    127 H127       33.0258    4.0542  -11.3279 H         1 UNK         0.0769 
    128 H128       31.8531    3.0117  -12.1175 H         1 UNK         0.0769 
    129 H129       33.4449    2.3867  -11.6883 H         1 UNK         0.0769 
    130 H130       31.7277    2.0517   -7.5156 H         1 UNK         0.2981 
    131 H131       34.4556    1.8135   -6.6519 H         1 UNK         0.0541 
    132 H132       32.5130    4.7367   -7.0099 H         1 UNK         0.3459 
    133 H133       33.5988    5.7556   -6.0980 H         1 UNK         0.3459 
    134 H134       31.8942    2.0612   -5.0046 H         1 UNK         0.0612 
    135 H135       33.4651    1.6867   -4.3379 H         1 UNK         0.0612 
    136 H136       31.4106    0.0646   -3.4443 H         1 UNK         0.0624 
    137 H137       33.0197   -0.5793   -3.2132 H         1 UNK         0.0624 
@<TRIPOS>BOND
     1    1    2 1    
     2    1   72 1    
     3    1   73 1    
     4    1   74 1    
     5    2    3 2    
     6    2    4 am   BACKBONE|DICT|INTERRES
     7    4    5 1    
     8    4   75 1    
     9    5    6 1    
    10    5   35 1    
    11    5   76 1    
    12    6    7 1    
    13    6   77 1    
    14    6   78 1    
    15    7    8 1    
    16    8    9 1    
    17    8   79 1    
    18    8   80 1    
    19    9   10 ar   
    20    9   14 ar   
    21   10   11 ar   
    22   10   81 1    
    23   11   12 ar   
    24   11   71 1    
    25   12   13 ar   
    26   12   82 1    
    27   13   14 ar   
    28   13   15 1    
    29   14   83 1    
    30   15   16 1    
    31   15   84 1    
    32   15   85 1    
    33   16   17 1    
    34   17   18 1    
    35   17   86 1    
    36   17   87 1    
    37   18   19 1    
    38   18   37 1    
    39   18   88 1    
    40   19   20 am   BACKBONE|DICT|INTERRES
    41   19   89 1    
    42   20   21 2    
    43   20   22 1    
    44   22   23 1    
    45   22   24 1    
    46   22   90 1    
    47   23   91 1    
    48   23   92 1    
    49   23   93 1    
    50   24   25 am   BACKBONE|DICT|INTERRES
    51   24   94 1    
    52   25   26 2    
    53   25   27 1    
    54   27   28 1    
    55   27   29 1    
    56   27   95 1    
    57   28   96 1    
    58   28   97 1    
    59   28   98 1    
    60   29   30 am   BACKBONE|DICT|INTERRES
    61   29   99 1    
    62   30   31 2    
    63   30   32 1    
    64   32   33 1    
    65   32   34 1    
    66   32  100 1    
    67   33  101 1    
    68   33  102 1    
    69   33  103 1    
    70   34   35 am   BACKBONE|DICT|INTERRES
    71   34  104 1    
    72   35   36 2    
    73   37   38 2    
    74   37   39 am   BACKBONE|DICT|INTERRES
    75   39   40 1    
    76   39  105 1    
    77   40   41 1    
    78   40   42 1    
    79   40  106 1    
    80   41  107 1    
    81   41  108 1    
    82   41  109 1    
    83   42   43 2    
    84   42   44 am   BACKBONE|DICT|INTERRES
    85   44   45 1    
    86   44  110 1    
    87   45   46 1    
    88   45   47 1    
    89   45  111 1    
    90   46  112 1    
    91   46  113 1    
    92   46  114 1    
    93   47   48 2    
    94   47   49 am   BACKBONE|DICT|INTERRES
    95   49   50 1    
    96   49  115 1    
    97   50   51 1    
    98   50   52 1    
    99   50  116 1    
   100   51  117 1    
   101   51  118 1    
   102   51  119 1    
   103   52   53 2    
   104   52   54 am   BACKBONE|DICT|INTERRES
   105   54   55 1    
   106   54  120 1    
   107   55   56 1    
   108   55   57 1    
   109   55  121 1    
   110   56  122 1    
   111   56  123 1    
   112   56  124 1    
   113   57   58 2    
   114   57   59 am   BACKBONE|DICT|INTERRES
   115   59   60 1    
   116   59  125 1    
   117   60   61 1    
   118   60   62 1    
   119   60  126 1    
   120   61  127 1    
   121   61  128 1    
   122   61  129 1    
   123   62   63 2    
   124   62   64 am   BACKBONE|DICT|INTERRES
   125   64   65 1    
   126   64  130 1    
   127   65   66 1    
   128   65   69 1    
   129   65  131 1    
   130   66   67 am   BACKBONE|DICT|INTERRES
   131   66   68 2    
   132   67  132 1    
   133   67  133 1    
   134   69   70 1    
   135   69  134 1    
   136   69  135 1    
   137   70   71 1    
   138   71  136 1    
   139   71  137 1    
@<TRIPOS>SUBSTRUCTURE
     1 UNK         1 GROUP             0       ****    0 ROOT    
