@<TRIPOS>MOLECULE
3R137
137   139    1
SMALL
USER_CHARGES


@<TRIPOS>ATOM
      1 CA         22.8026   -0.4978   -7.9096 C.3       0 UNK        -0.2020 
      2 C          23.2972   -1.8579   -7.4417 C.2       0 UNK         0.4855 
      3 O          22.7725   -2.8810   -7.8839 O.2       0 UNK        -0.5197 
      4 N          24.2928   -1.8811   -6.5474 N.am      1 UNK        -0.4892 
      5 CA         24.7666   -3.0937   -5.8744 C.3       1 UNK         0.0835 
      6 C6         26.2233   -2.9461   -5.3601 C.3       12 UNK        -0.0855 
      7 S7         27.4275   -2.3880   -6.6176 S.3       12 UNK        -0.2931 
      8 C8         28.8164   -3.5351   -6.3293 C.3       12 UNK         0.0378 
      9 C9         29.7262   -3.0679   -5.1988 C.ar      12 UNK        -0.0802 
     10 C10        30.9987   -2.5623   -5.4884 C.ar      12 UNK        -0.0944 
     11 C11        31.8553   -2.1637   -4.4576 C.ar      12 UNK        -0.0787 
     12 C12        31.4172   -2.2316   -3.1332 C.ar      12 UNK        -0.0862 
     13 C13        30.1429   -2.7178   -2.8297 C.ar      12 UNK        -0.0733 
     14 C14        29.3150   -3.1634   -3.8640 C.ar      12 UNK        -0.0832 
     15 C15        29.6679   -2.7551   -1.3813 C.3       12 UNK         0.0240 
     16 S16        28.2026   -1.7078   -1.0760 S.3       12 UNK        -0.2522 
     17 C17        28.6481   -0.1311   -1.8832 C.3       12 UNK        -0.0967 
     18 CA         27.8076    0.0763   -3.1670 C.3       5 UNK         0.0660 
     19 N          26.3978    0.3134   -2.8455 N.am      5 UNK        -0.4015 
     20 C          25.3853    0.3839   -3.7172 C.2       4 UNK         0.4946 
     21 O          25.5071    0.2439   -4.9363 O.2       4 UNK        -0.5353 
     22 CA         23.9927    0.5884   -3.0997 C.3       4 UNK         0.0277 
     23 CB         22.9048    0.8539   -4.1572 C.3       4 UNK        -0.1981 
     24 N          23.6115   -0.5770   -2.2961 N.am      4 UNK        -0.4209 
     25 C          23.9287   -0.7510   -1.0042 C.2       3 UNK         0.4942 
     26 O          24.6103    0.0550   -0.3686 O.2       3 UNK        -0.5208 
     27 CA         23.4025   -2.0086   -0.2847 C.3       3 UNK         0.0250 
     28 CB         22.1491   -1.6649    0.5368 C.3       3 UNK        -0.1990 
     29 N          23.0873   -3.1124   -1.1943 N.am      3 UNK        -0.4232 
     30 C          23.9918   -3.9678   -1.6883 C.2       2 UNK         0.4993 
     31 O          25.1825   -3.9624   -1.3752 O.2       2 UNK        -0.5286 
     32 CA         23.5132   -4.9768   -2.7526 C.3       2 UNK         0.0209 
     33 CB         21.9816   -5.1912   -2.7933 C.3       2 UNK        -0.1931 
     34 N          24.0380   -4.5986   -4.0723 N.am      2 UNK        -0.4546 
     35 C          23.8356   -3.4226   -4.6862 C.2       1 UNK         0.5154 
     36 O          23.0147   -2.5886   -4.2897 O.2       1 UNK        -0.5181 
     37 C          28.4059    1.1815   -4.0566 C.2       5 UNK         0.5014 
     38 O          28.0253    2.3482   -3.9323 O.2       5 UNK        -0.5248 
     39 N          29.3477    0.7739   -4.9215 N.am      6 UNK        -0.4434 
     40 CA         30.0626    1.5840   -5.9188 C.3       6 UNK         0.0363 
     41 CB         30.8578    2.7276   -5.2513 C.3       6 UNK        -0.1936 
     42 C          29.1755    2.0929   -7.0743 C.2       6 UNK         0.5081 
     43 O          29.5881    3.0030   -7.7954 O.2       6 UNK        -0.5248 
     44 N          27.9804    1.5100   -7.2469 N.am      7 UNK        -0.4718 
     45 CA         27.0749    1.8220   -8.3536 C.3       7 UNK         0.0273 
     46 CB         25.6405    1.4514   -7.9632 C.3       7 UNK        -0.1935 
     47 C          27.4860    1.1007   -9.6447 C.2       7 UNK         0.5018 
     48 O          27.4782    1.7153  -10.7126 O.2       7 UNK        -0.5186 
     49 N          27.8677   -0.1797   -9.5307 N.am      8 UNK        -0.4240 
     50 CA         28.3522   -1.0147  -10.6337 C.3       8 UNK         0.0235 
     51 CB         28.0793   -2.4934  -10.3010 C.3       8 UNK        -0.2000 
     52 C          29.8392   -0.7298  -10.9216 C.2       8 UNK         0.4941 
     53 O          30.6765   -1.6223  -10.7732 O.2       8 UNK        -0.5273 
     54 N          30.1181    0.5248  -11.3058 N.am      9 UNK        -0.4262 
     55 CA         31.4249    1.1775  -11.4605 C.3       9 UNK         0.0264 
     56 CB         32.3453    0.4030  -12.4278 C.3       9 UNK        -0.1955 
     57 C          32.1147    1.4522  -10.1096 C.2       9 UNK         0.5031 
     58 O          31.7548    0.8710   -9.0829 O.2       9 UNK        -0.5390 
     59 N          33.0966    2.3634  -10.1362 N.am      10 UNK        -0.4204 
     60 CA         33.8903    2.7619   -8.9720 C.3       10 UNK         0.0237 
     61 CB         34.7628    3.9736   -9.3392 C.3       10 UNK        -0.1985 
     62 C          34.7606    1.6059   -8.4520 C.2       10 UNK         0.4970 
     63 O          35.3530    0.8788   -9.2537 O.2       10 UNK        -0.4914 
     64 N          34.8216    1.4726   -7.1241 N.am      11 UNK        -0.4285 
     65 CA         35.5807    0.4330   -6.4177 C.3       11 UNK         0.1007 
     66 C          37.1175    0.6019   -6.5668 C.2       11 UNK         0.5703 
     67 N          37.8638   -0.4944   -6.5791 N.am      11 UNK        -0.7361 
     68 O          37.6403    1.7137   -6.6290 O.2       11 UNK        -0.4986 
     69 C69        35.1783    0.3564   -4.9222 C.3       12 UNK        -0.0947 
     70 S70        33.3862    0.1215   -4.6750 S.3       12 UNK        -0.2240 
     71 C71        33.2664   -1.6869   -4.7614 C.3       12 UNK         0.0194 
     72 H72        23.1709   -0.2879   -8.9133 H         1 UNK         0.0906 
     73 H73        21.7133   -0.4830   -7.9360 H         1 UNK         0.0906 
     74 H74        23.1282    0.3014   -7.2449 H         1 UNK         0.0906 
     75 H75        24.6731   -1.0170   -6.1677 H         1 UNK         0.3140 
     76 H76        24.7294   -3.9283   -6.5781 H         1 UNK         0.1085 
     77 H77        26.2659   -2.2553   -4.5197 H         1 UNK         0.0836 
     78 H78        26.5555   -3.9059   -4.9643 H         1 UNK         0.0836 
     79 H79        29.3871   -3.6181   -7.2551 H         1 UNK         0.0731 
     80 H80        28.4461   -4.5399   -6.1219 H         1 UNK         0.0731 
     81 H81        31.3327   -2.4989   -6.5154 H         1 UNK         0.1312 
     82 H82        32.0745   -1.9042   -2.3389 H         1 UNK         0.1406 
     83 H83        28.3405   -3.5596   -3.6190 H         1 UNK         0.1631 
     84 H84        30.4642   -2.4388   -0.7058 H         1 UNK         0.0717 
     85 H85        29.4280   -3.7840   -1.1097 H         1 UNK         0.0717 
     86 H86        28.4832    0.6859   -1.1782 H         1 UNK         0.0934 
     87 H87        29.7184   -0.1223   -2.0965 H         1 UNK         0.0934 
     88 H88        27.8419   -0.8415   -3.7526 H         1 UNK         0.0739 
     89 H89        26.1736    0.3989   -1.8616 H         1 UNK         0.3093 
     90 H90        24.0469    1.4730   -2.4613 H         1 UNK         0.0818 
     91 H91        23.1712    1.7030   -4.7880 H         1 UNK         0.0819 
     92 H92        22.7555   -0.0049   -4.8105 H         1 UNK         0.0819 
     93 H93        21.9481    1.0849   -3.6891 H         1 UNK         0.0819 
     94 H94        23.1467   -1.3271   -2.8008 H         1 UNK         0.3041 
     95 H95        24.1807   -2.3351    0.4090 H         1 UNK         0.0784 
     96 H96        22.3565   -0.8643    1.2486 H         1 UNK         0.0793 
     97 H97        21.3275   -1.3311   -0.0983 H         1 UNK         0.0793 
     98 H98        21.8030   -2.5245    1.1112 H         1 UNK         0.0793 
     99 H99        22.1375   -3.1717   -1.5328 H         1 UNK         0.3024 
    100 H100       23.9710   -5.9323   -2.4900 H         1 UNK         0.1171 
    101 H101       21.7208   -5.9812   -3.4977 H         1 UNK         0.0786 
    102 H102       21.6036   -5.4988   -1.8173 H         1 UNK         0.0786 
    103 H103       21.4346   -4.2971   -3.0928 H         1 UNK         0.0786 
    104 H104       24.7363   -5.2236   -4.4509 H         1 UNK         0.2977 
    105 H105       29.5900   -0.2089   -4.9270 H         1 UNK         0.3127 
    106 H106       30.7871    0.9097   -6.3788 H         1 UNK         0.0770 
    107 H107       30.2028    3.5255   -4.9007 H         1 UNK         0.0814 
    108 H108       31.5603    3.1734   -5.9562 H         1 UNK         0.0814 
    109 H109       31.4355    2.3714   -4.3992 H         1 UNK         0.0814 
    110 H110       27.6817    0.8011   -6.5909 H         1 UNK         0.2983 
    111 H111       27.1039    2.8970   -8.5460 H         1 UNK         0.0947 
    112 H112       24.9427    1.6824   -8.7690 H         1 UNK         0.0806 
    113 H113       25.3140    2.0022   -7.0807 H         1 UNK         0.0806 
    114 H114       25.5561    0.3873   -7.7450 H         1 UNK         0.0806 
    115 H115       27.8794   -0.5991   -8.6113 H         1 UNK         0.3000 
    116 H116       27.7903   -0.7720  -11.5385 H         1 UNK         0.0850 
    117 H117       28.6412   -2.8200   -9.4263 H         1 UNK         0.0810 
    118 H118       28.3673   -3.1387  -11.1318 H         1 UNK         0.0810 
    119 H119       27.0214   -2.6692  -10.1042 H         1 UNK         0.0810 
    120 H120       29.3231    1.1561  -11.3371 H         1 UNK         0.3040 
    121 H121       31.2086    2.1480  -11.9101 H         1 UNK         0.0766 
    122 H122       32.7015   -0.5310  -11.9921 H         1 UNK         0.0812 
    123 H123       33.2274    0.9900  -12.6850 H         1 UNK         0.0812 
    124 H124       31.8333    0.1654  -13.3603 H         1 UNK         0.0812 
    125 H125       33.3549    2.7761  -11.0206 H         1 UNK         0.3205 
    126 H126       33.1939    3.0624   -8.1857 H         1 UNK         0.0754 
    127 H127       35.3488    4.3063   -8.4812 H         1 UNK         0.0769 
    128 H128       34.1546    4.8190   -9.6617 H         1 UNK         0.0769 
    129 H129       35.4648    3.7377  -10.1402 H         1 UNK         0.0769 
    130 H130       34.3206    2.1215   -6.5369 H         1 UNK         0.2981 
    131 H131       35.3128   -0.5184   -6.8817 H         1 UNK         0.0541 
    132 H132       37.4481   -1.4108   -6.5164 H         1 UNK         0.3459 
    133 H133       38.8646   -0.4039   -6.6596 H         1 UNK         0.3459 
    134 H134       35.4660    1.2741   -4.4057 H         1 UNK         0.0612 
    135 H135       35.7119   -0.4522   -4.4192 H         1 UNK         0.0612 
    136 H136       33.9615   -2.1328   -4.0484 H         1 UNK         0.0624 
    137 H137       33.5790   -2.0213   -5.7517 H         1 UNK         0.0624 
@<TRIPOS>BOND
     1    1    2 1    
     2    1   72 1    
     3    1   73 1    
     4    1   74 1    
     5    2    3 2    
     6    2    4 am   BACKBONE|DICT|INTERRES
     7    4    5 1    
     8    4   75 1    
     9    5    6 1    
    10    5   35 1    
    11    5   76 1    
    12    6    7 1    
    13    6   77 1    
    14    6   78 1    
    15    7    8 1    
    16    8    9 1    
    17    8   79 1    
    18    8   80 1    
    19    9   10 ar   
    20    9   14 ar   
    21   10   11 ar   
    22   10   81 1    
    23   11   12 ar   
    24   11   71 1    
    25   12   13 ar   
    26   12   82 1    
    27   13   14 ar   
    28   13   15 1    
    29   14   83 1    
    30   15   16 1    
    31   15   84 1    
    32   15   85 1    
    33   16   17 1    
    34   17   18 1    
    35   17   86 1    
    36   17   87 1    
    37   18   19 1    
    38   18   37 1    
    39   18   88 1    
    40   19   20 am   BACKBONE|DICT|INTERRES
    41   19   89 1    
    42   20   21 2    
    43   20   22 1    
    44   22   23 1    
    45   22   24 1    
    46   22   90 1    
    47   23   91 1    
    48   23   92 1    
    49   23   93 1    
    50   24   25 am   BACKBONE|DICT|INTERRES
    51   24   94 1    
    52   25   26 2    
    53   25   27 1    
    54   27   28 1    
    55   27   29 1    
    56   27   95 1    
    57   28   96 1    
    58   28   97 1    
    59   28   98 1    
    60   29   30 am   BACKBONE|DICT|INTERRES
    61   29   99 1    
    62   30   31 2    
    63   30   32 1    
    64   32   33 1    
    65   32   34 1    
    66   32  100 1    
    67   33  101 1    
    68   33  102 1    
    69   33  103 1    
    70   34   35 am   BACKBONE|DICT|INTERRES
    71   34  104 1    
    72   35   36 2    
    73   37   38 2    
    74   37   39 am   BACKBONE|DICT|INTERRES
    75   39   40 1    
    76   39  105 1    
    77   40   41 1    
    78   40   42 1    
    79   40  106 1    
    80   41  107 1    
    81   41  108 1    
    82   41  109 1    
    83   42   43 2    
    84   42   44 am   BACKBONE|DICT|INTERRES
    85   44   45 1    
    86   44  110 1    
    87   45   46 1    
    88   45   47 1    
    89   45  111 1    
    90   46  112 1    
    91   46  113 1    
    92   46  114 1    
    93   47   48 2    
    94   47   49 am   BACKBONE|DICT|INTERRES
    95   49   50 1    
    96   49  115 1    
    97   50   51 1    
    98   50   52 1    
    99   50  116 1    
   100   51  117 1    
   101   51  118 1    
   102   51  119 1    
   103   52   53 2    
   104   52   54 am   BACKBONE|DICT|INTERRES
   105   54   55 1    
   106   54  120 1    
   107   55   56 1    
   108   55   57 1    
   109   55  121 1    
   110   56  122 1    
   111   56  123 1    
   112   56  124 1    
   113   57   58 2    
   114   57   59 am   BACKBONE|DICT|INTERRES
   115   59   60 1    
   116   59  125 1    
   117   60   61 1    
   118   60   62 1    
   119   60  126 1    
   120   61  127 1    
   121   61  128 1    
   122   61  129 1    
   123   62   63 2    
   124   62   64 am   BACKBONE|DICT|INTERRES
   125   64   65 1    
   126   64  130 1    
   127   65   66 1    
   128   65   69 1    
   129   65  131 1    
   130   66   67 am   BACKBONE|DICT|INTERRES
   131   66   68 2    
   132   67  132 1    
   133   67  133 1    
   134   69   70 1    
   135   69  134 1    
   136   69  135 1    
   137   70   71 1    
   138   71  136 1    
   139   71  137 1    
@<TRIPOS>SUBSTRUCTURE
     1 UNK         1 GROUP             0       ****    0 ROOT    
