@<TRIPOS>MOLECULE
3R137
137   139    1
SMALL
USER_CHARGES


@<TRIPOS>ATOM
      1 CA         32.4453    0.1402    0.0068 C.3       0 UNK        -0.2020 
      2 C          31.7951   -1.1848   -0.3613 C.2       0 UNK         0.4855 
      3 O          32.4878   -2.1977   -0.4445 O.2       0 UNK        -0.5197 
      4 N          30.4760   -1.1745   -0.5742 N.am      1 UNK        -0.4892 
      5 CA         29.6338   -2.2774   -1.0331 C.3       1 UNK         0.0835 
      6 C6         29.6234   -3.4879   -0.0532 C.3       12 UNK        -0.0855 
      7 S7         28.8372   -4.9921   -0.7318 S.3       12 UNK        -0.2931 
      8 C8         30.2496   -5.8674   -1.4722 C.3       12 UNK         0.0378 
      9 C9         30.6955   -5.2392   -2.7858 C.ar      12 UNK        -0.0802 
     10 C10        31.9086   -4.5478   -2.8603 C.ar      12 UNK        -0.0944 
     11 C11        32.3578   -4.0286   -4.0778 C.ar      12 UNK        -0.0787 
     12 C12        31.5811   -4.2052   -5.2264 C.ar      12 UNK        -0.0862 
     13 C13        30.3557   -4.8772   -5.1643 C.ar      12 UNK        -0.0733 
     14 C14        29.9178   -5.3913   -3.9393 C.ar      12 UNK        -0.0832 
     15 C15        29.5459   -5.1105   -6.4344 C.3       12 UNK         0.0240 
     16 S16        29.1475   -3.5648   -7.3124 S.3       12 UNK        -0.2522 
     17 C17        27.6953   -2.9524   -6.3955 C.3       12 UNK        -0.0967 
     18 CA         26.7920   -2.0600   -7.2863 C.3       5 UNK         0.0660 
     19 N          25.4568   -1.8806   -6.7190 N.am      5 UNK        -0.4015 
     20 C          24.3680   -1.5638   -7.4360 C.2       4 UNK         0.4946 
     21 O          24.3418   -1.5254   -8.6663 O.2       4 UNK        -0.5353 
     22 CA         23.0925   -1.2079   -6.6510 C.3       4 UNK         0.0277 
     23 CB         22.2178   -2.4560   -6.4505 C.3       4 UNK        -0.1981 
     24 N          23.3682   -0.5930   -5.3498 N.am      4 UNK        -0.4209 
     25 C          23.9504    0.6031   -5.1772 C.2       3 UNK         0.4942 
     26 O          24.2667    1.3518   -6.1010 O.2       3 UNK        -0.5208 
     27 CA         24.2875    1.0002   -3.7293 C.3       3 UNK         0.0250 
     28 CB         23.0934    1.7110   -3.0733 C.3       3 UNK        -0.1990 
     29 N          24.7035   -0.1362   -2.8990 N.am      3 UNK        -0.4232 
     30 C          25.7800   -0.9008   -3.1304 C.2       2 UNK         0.4993 
     31 O          26.5512   -0.7403   -4.0803 O.2       2 UNK        -0.5286 
     32 CA         25.9680   -2.1070   -2.2027 C.3       2 UNK         0.0209 
     33 CB         25.2743   -3.3423   -2.8010 C.3       2 UNK        -0.1931 
     34 N          27.3780   -2.4242   -1.9818 N.am      2 UNK        -0.4546 
     35 C          28.2237   -1.6910   -1.2494 C.2       1 UNK         0.5154 
     36 O          27.9159   -0.6165   -0.7219 O.2       1 UNK        -0.5181 
     37 C          27.4211   -0.6833   -7.5714 C.2       5 UNK         0.5014 
     38 O          27.9126   -0.4604   -8.6786 O.2       5 UNK        -0.5248 
     39 N          27.3631    0.2291   -6.5877 N.am      6 UNK        -0.4434 
     40 CA         27.9400    1.5768   -6.6438 C.3       6 UNK         0.0363 
     41 CB         27.7074    2.3107   -5.3153 C.3       6 UNK        -0.1936 
     42 C          27.4339    2.4290   -7.8168 C.2       6 UNK         0.5081 
     43 O          28.2167    3.1824   -8.3934 O.2       6 UNK        -0.5248 
     44 N          26.1614    2.2462   -8.1916 N.am      7 UNK        -0.4718 
     45 CA         25.5257    2.8501   -9.3657 C.3       7 UNK         0.0273 
     46 CB         24.0519    2.4148   -9.4073 C.3       7 UNK        -0.1935 
     47 C          26.2150    2.5329  -10.7096 C.2       7 UNK         0.5018 
     48 O          26.0490    3.3073  -11.6533 O.2       7 UNK        -0.5186 
     49 N          26.9643    1.4231  -10.7783 N.am      8 UNK        -0.4240 
     50 CA         27.7264    1.0012  -11.9533 C.3       8 UNK         0.0235 
     51 CB         27.2815   -0.4145  -12.3583 C.3       8 UNK        -0.2000 
     52 C          29.2415    1.0304  -11.6985 C.2       8 UNK         0.4941 
     53 O          29.9837    1.4952  -12.5645 O.2       8 UNK        -0.5273 
     54 N          29.6794    0.5078  -10.5453 N.am      9 UNK        -0.4262 
     55 CA         31.0789    0.1872  -10.2519 C.3       9 UNK         0.0264 
     56 CB         31.1431   -1.2834   -9.7996 C.3       9 UNK        -0.1955 
     57 C          31.7247    1.0960   -9.1930 C.2       9 UNK         0.5031 
     58 O          32.8551    0.8114   -8.7946 O.2       9 UNK        -0.5390 
     59 N          31.0198    2.1312   -8.7103 N.am      10 UNK        -0.4204 
     60 CA         31.4193    3.1044   -7.6736 C.3       10 UNK         0.0237 
     61 CB         32.6786    3.8911   -8.0893 C.3       10 UNK        -0.1985 
     62 C          31.5704    2.5329   -6.2471 C.2       10 UNK         0.4970 
     63 O          31.2879    3.2523   -5.2896 O.2       10 UNK        -0.4914 
     64 N          31.9973    1.2712   -6.1288 N.am      11 UNK        -0.4285 
     65 CA         32.1558    0.5062   -4.8869 C.3       11 UNK         0.1007 
     66 C          30.8155    0.3047   -4.1248 C.2       11 UNK         0.5703 
     67 N          29.8865   -0.4748   -4.6648 N.am      11 UNK        -0.7361 
     68 O          30.6161    0.8636   -3.0498 O.2       11 UNK        -0.4986 
     69 C69        32.9017   -0.8222   -5.1751 C.3       12 UNK        -0.0947 
     70 S70        33.6134   -1.5743   -3.6781 S.3       12 UNK        -0.2240 
     71 C71        33.7072   -3.3271   -4.1579 C.3       12 UNK         0.0194 
     72 H72        32.9018    0.0755    0.9941 H         1 UNK         0.0906 
     73 H73        33.2237    0.3846   -0.7158 H         1 UNK         0.0906 
     74 H74        31.7254    0.9587    0.0151 H         1 UNK         0.0906 
     75 H75        29.9540   -0.3074   -0.4986 H         1 UNK         0.3140 
     76 H76        30.0207   -2.5886   -2.0051 H         1 UNK         0.1085 
     77 H77        30.6356   -3.7577    0.2457 H         1 UNK         0.0836 
     78 H78        29.1138   -3.2197    0.8742 H         1 UNK         0.0836 
     79 H79        31.0727   -5.9095   -0.7571 H         1 UNK         0.0731 
     80 H80        29.9592   -6.9028   -1.6566 H         1 UNK         0.0731 
     81 H81        32.5143   -4.4243   -1.9726 H         1 UNK         0.1312 
     82 H82        31.9343   -3.8304   -6.1772 H         1 UNK         0.1406 
     83 H83        28.9841   -5.9347   -3.8837 H         1 UNK         0.1631 
     84 H84        28.6279   -5.6620   -6.2260 H         1 UNK         0.0717 
     85 H85        30.1329   -5.7422   -7.1023 H         1 UNK         0.0717 
     86 H86        27.1239   -3.8162   -6.0528 H         1 UNK         0.0934 
     87 H87        28.0253   -2.4362   -5.4934 H         1 UNK         0.0934 
     88 H88        26.6739   -2.5672   -8.2469 H         1 UNK         0.0739 
     89 H89        25.4039   -1.8335   -5.7117 H         1 UNK         0.3093 
     90 H90        22.5313   -0.4863   -7.2491 H         1 UNK         0.0818 
     91 H91        21.2722   -2.2054   -5.9693 H         1 UNK         0.0819 
     92 H92        21.9776   -2.9207   -7.4080 H         1 UNK         0.0819 
     93 H93        22.7178   -3.2088   -5.8398 H         1 UNK         0.0819 
     94 H94        23.1244   -1.1289   -4.5298 H         1 UNK         0.3041 
     95 H95        25.1212    1.7023   -3.7616 H         1 UNK         0.0784 
     96 H96        22.7816    2.5737   -3.6642 H         1 UNK         0.0793 
     97 H97        22.2295    1.0519   -2.9783 H         1 UNK         0.0793 
     98 H98        23.3474    2.0782   -2.0787 H         1 UNK         0.0793 
     99 H99        24.1183   -0.3467   -2.1028 H         1 UNK         0.3024 
    100 H100       25.5174   -1.8809   -1.2334 H         1 UNK         0.1171 
    101 H101       24.2093   -3.1631   -2.9539 H         1 UNK         0.0786 
    102 H102       25.3617   -4.2038   -2.1383 H         1 UNK         0.0786 
    103 H103       25.7018   -3.6196   -3.7655 H         1 UNK         0.0786 
    104 H104       27.7089   -3.3028   -2.3549 H         1 UNK         0.2977 
    105 H105       26.9622   -0.0500   -5.6935 H         1 UNK         0.3127 
    106 H106       29.0120    1.4392   -6.7749 H         1 UNK         0.0770 
    107 H107       26.6606    2.5829   -5.1878 H         1 UNK         0.0814 
    108 H108       28.2873    3.2339   -5.2802 H         1 UNK         0.0814 
    109 H109       28.0088    1.7085   -4.4584 H         1 UNK         0.0814 
    110 H110       25.5721    1.6635   -7.6035 H         1 UNK         0.2983 
    111 H111       25.5632    3.9335   -9.2347 H         1 UNK         0.0947 
    112 H112       23.5339    2.8603  -10.2578 H         1 UNK         0.0806 
    113 H113       23.5211    2.7250   -8.5069 H         1 UNK         0.0806 
    114 H114       23.9561    1.3315   -9.4952 H         1 UNK         0.0806 
    115 H115       27.0613    0.8522   -9.9449 H         1 UNK         0.3000 
    116 H116       27.5287    1.6664  -12.7967 H         1 UNK         0.0850 
    117 H117       27.8402   -0.7675  -13.2263 H         1 UNK         0.0810 
    118 H118       26.2244   -0.4343  -12.6235 H         1 UNK         0.0810 
    119 H119       27.4366   -1.1347  -11.5534 H         1 UNK         0.0810 
    120 H120       28.9972    0.1442   -9.8779 H         1 UNK         0.3040 
    121 H121       31.6847    0.2839  -11.1551 H         1 UNK         0.0766 
    122 H122       32.1732   -1.6092   -9.6494 H         1 UNK         0.0812 
    123 H123       30.7016   -1.9481  -10.5423 H         1 UNK         0.0812 
    124 H124       30.6126   -1.4351   -8.8592 H         1 UNK         0.0812 
    125 H125       30.0816    2.2700   -9.0697 H         1 UNK         0.3205 
    126 H126       30.6032    3.8256   -7.6208 H         1 UNK         0.0754 
    127 H127       32.8887    4.6904   -7.3773 H         1 UNK         0.0769 
    128 H128       32.5510    4.3547   -9.0675 H         1 UNK         0.0769 
    129 H129       33.5647    3.2572   -8.1307 H         1 UNK         0.0769 
    130 H130       32.2733    0.8040   -6.9868 H         1 UNK         0.2981 
    131 H131       32.7982    1.1117   -4.2445 H         1 UNK         0.0541 
    132 H132       30.0543   -0.9461   -5.5376 H         1 UNK         0.3459 
    133 H133       29.0030   -0.5805   -4.1904 H         1 UNK         0.3459 
    134 H134       33.7337   -0.6428   -5.8582 H         1 UNK         0.0612 
    135 H135       32.2481   -1.5303   -5.6836 H         1 UNK         0.0612 
    136 H136       34.1256   -3.4074   -5.1624 H         1 UNK         0.0624 
    137 H137       34.4141   -3.8284   -3.4952 H         1 UNK         0.0624 
@<TRIPOS>BOND
     1    1    2 1    
     2    1   72 1    
     3    1   73 1    
     4    1   74 1    
     5    2    3 2    
     6    2    4 am   BACKBONE|DICT|INTERRES
     7    4    5 1    
     8    4   75 1    
     9    5    6 1    
    10    5   35 1    
    11    5   76 1    
    12    6    7 1    
    13    6   77 1    
    14    6   78 1    
    15    7    8 1    
    16    8    9 1    
    17    8   79 1    
    18    8   80 1    
    19    9   10 ar   
    20    9   14 ar   
    21   10   11 ar   
    22   10   81 1    
    23   11   12 ar   
    24   11   71 1    
    25   12   13 ar   
    26   12   82 1    
    27   13   14 ar   
    28   13   15 1    
    29   14   83 1    
    30   15   16 1    
    31   15   84 1    
    32   15   85 1    
    33   16   17 1    
    34   17   18 1    
    35   17   86 1    
    36   17   87 1    
    37   18   19 1    
    38   18   37 1    
    39   18   88 1    
    40   19   20 am   BACKBONE|DICT|INTERRES
    41   19   89 1    
    42   20   21 2    
    43   20   22 1    
    44   22   23 1    
    45   22   24 1    
    46   22   90 1    
    47   23   91 1    
    48   23   92 1    
    49   23   93 1    
    50   24   25 am   BACKBONE|DICT|INTERRES
    51   24   94 1    
    52   25   26 2    
    53   25   27 1    
    54   27   28 1    
    55   27   29 1    
    56   27   95 1    
    57   28   96 1    
    58   28   97 1    
    59   28   98 1    
    60   29   30 am   BACKBONE|DICT|INTERRES
    61   29   99 1    
    62   30   31 2    
    63   30   32 1    
    64   32   33 1    
    65   32   34 1    
    66   32  100 1    
    67   33  101 1    
    68   33  102 1    
    69   33  103 1    
    70   34   35 am   BACKBONE|DICT|INTERRES
    71   34  104 1    
    72   35   36 2    
    73   37   38 2    
    74   37   39 am   BACKBONE|DICT|INTERRES
    75   39   40 1    
    76   39  105 1    
    77   40   41 1    
    78   40   42 1    
    79   40  106 1    
    80   41  107 1    
    81   41  108 1    
    82   41  109 1    
    83   42   43 2    
    84   42   44 am   BACKBONE|DICT|INTERRES
    85   44   45 1    
    86   44  110 1    
    87   45   46 1    
    88   45   47 1    
    89   45  111 1    
    90   46  112 1    
    91   46  113 1    
    92   46  114 1    
    93   47   48 2    
    94   47   49 am   BACKBONE|DICT|INTERRES
    95   49   50 1    
    96   49  115 1    
    97   50   51 1    
    98   50   52 1    
    99   50  116 1    
   100   51  117 1    
   101   51  118 1    
   102   51  119 1    
   103   52   53 2    
   104   52   54 am   BACKBONE|DICT|INTERRES
   105   54   55 1    
   106   54  120 1    
   107   55   56 1    
   108   55   57 1    
   109   55  121 1    
   110   56  122 1    
   111   56  123 1    
   112   56  124 1    
   113   57   58 2    
   114   57   59 am   BACKBONE|DICT|INTERRES
   115   59   60 1    
   116   59  125 1    
   117   60   61 1    
   118   60   62 1    
   119   60  126 1    
   120   61  127 1    
   121   61  128 1    
   122   61  129 1    
   123   62   63 2    
   124   62   64 am   BACKBONE|DICT|INTERRES
   125   64   65 1    
   126   64  130 1    
   127   65   66 1    
   128   65   69 1    
   129   65  131 1    
   130   66   67 am   BACKBONE|DICT|INTERRES
   131   66   68 2    
   132   67  132 1    
   133   67  133 1    
   134   69   70 1    
   135   69  134 1    
   136   69  135 1    
   137   70   71 1    
   138   71  136 1    
   139   71  137 1    
@<TRIPOS>SUBSTRUCTURE
     1 UNK         1 GROUP             0       ****    0 ROOT    
