@<TRIPOS>MOLECULE
3R137
137   139    1
SMALL
USER_CHARGES


@<TRIPOS>ATOM
      1 CA         25.4976   -8.0530   -3.4175 C.3       0 UNK        -0.2020 
      2 C          26.0484   -6.7799   -2.7939 C.2       0 UNK         0.4855 
      3 O          25.9405   -6.5930   -1.5810 O.2       0 UNK        -0.5197 
      4 N          26.6339   -5.8948   -3.6105 N.am      1 UNK        -0.4892 
      5 CA         27.2191   -4.6151   -3.1956 C.3       1 UNK         0.0835 
      6 C6         28.2822   -4.1146   -4.2059 C.3       12 UNK        -0.0855 
      7 S7         29.7965   -5.1374   -4.1976 S.3       12 UNK        -0.2931 
      8 C8         30.6014   -4.6735   -2.6209 C.3       12 UNK         0.0378 
      9 C9         30.6771   -3.1656   -2.4231 C.ar      12 UNK        -0.0802 
     10 C10        31.5614   -2.4012   -3.1884 C.ar      12 UNK        -0.0944 
     11 C11        31.5765   -1.0073   -3.0769 C.ar      12 UNK        -0.0787 
     12 C12        30.7256   -0.3826   -2.1589 C.ar      12 UNK        -0.0862 
     13 C13        29.8389   -1.1377   -1.3834 C.ar      12 UNK        -0.0733 
     14 C14        29.8277   -2.5292   -1.5118 C.ar      12 UNK        -0.0832 
     15 C15        28.8685   -0.4546   -0.4286 C.3       12 UNK         0.0240 
     16 S16        27.2253   -0.2168   -1.1877 S.3       12 UNK        -0.2522 
     17 C17        27.5758    1.0716   -2.4280 C.3       12 UNK        -0.0967 
     18 CA         27.7845    0.4620   -3.8436 C.3       5 UNK         0.0660 
     19 N          26.5375   -0.0010   -4.4672 N.am      5 UNK        -0.4015 
     20 C          25.6234    0.7587   -5.0895 C.2       4 UNK         0.4946 
     21 O          25.6522    1.9910   -5.1037 O.2       4 UNK        -0.5353 
     22 CA         24.5144    0.0391   -5.8682 C.3       4 UNK         0.0277 
     23 CB         25.0377   -0.4502   -7.2314 C.3       4 UNK        -0.1981 
     24 N          23.9215   -1.0817   -5.1337 N.am      4 UNK        -0.4209 
     25 C          22.6252   -1.4226   -5.2100 C.2       3 UNK         0.4942 
     26 O          21.7992   -0.8087   -5.8876 O.2       3 UNK        -0.5208 
     27 CA         22.1474   -2.6618   -4.4251 C.3       3 UNK         0.0250 
     28 CB         21.9614   -3.8572   -5.3745 C.3       3 UNK        -0.1990 
     29 N          23.0413   -3.0588   -3.3379 N.am      3 UNK        -0.4232 
     30 C          23.2556   -2.3538   -2.2203 C.2       2 UNK         0.4993 
     31 O          22.6324   -1.3326   -1.9286 O.2       2 UNK        -0.5286 
     32 CA         24.3617   -2.8533   -1.2732 C.3       2 UNK         0.0209 
     33 CB         23.7421   -3.5233   -0.0358 C.3       2 UNK        -0.1931 
     34 N          25.3530   -3.7691   -1.8574 N.am      2 UNK        -0.4546 
     35 C          26.1242   -3.5611   -2.9343 C.2       1 UNK         0.5154 
     36 O          25.9807   -2.6128   -3.7096 O.2       1 UNK        -0.5181 
     37 C          28.5839    1.3586   -4.8158 C.2       5 UNK         0.5014 
     38 O          28.9348    0.8910   -5.8979 O.2       5 UNK        -0.5248 
     39 N          28.8150    2.6296   -4.4547 N.am      6 UNK        -0.4434 
     40 CA         29.5628    3.6217   -5.2349 C.3       6 UNK         0.0363 
     41 CB         29.6716    4.9184   -4.4163 C.3       6 UNK        -0.1936 
     42 C          29.0007    3.9180   -6.6403 C.2       6 UNK         0.5081 
     43 O          29.7330    4.4601   -7.4678 O.2       6 UNK        -0.5248 
     44 N          27.7323    3.5661   -6.8978 N.am      7 UNK        -0.4718 
     45 CA         27.1088    3.6623   -8.2191 C.3       7 UNK         0.0273 
     46 CB         25.5796    3.6871   -8.0586 C.3       7 UNK        -0.1935 
     47 C          27.5384    2.5405   -9.1861 C.2       7 UNK         0.5018 
     48 O          27.2801    2.6704  -10.3840 O.2       7 UNK        -0.5186 
     49 N          28.1580    1.4613   -8.6812 N.am      8 UNK        -0.4240 
     50 CA         28.6632    0.3549   -9.4965 C.3       8 UNK         0.0235 
     51 CB         28.9548   -0.8577   -8.5972 C.3       8 UNK        -0.2000 
     52 C          29.9328    0.7618  -10.2592 C.2       8 UNK         0.4941 
     53 O          30.7919    1.4478   -9.6997 O.2       8 UNK        -0.5273 
     54 N          30.0641    0.2751  -11.5009 N.am      9 UNK        -0.4262 
     55 CA         31.2047    0.5372  -12.3894 C.3       9 UNK         0.0264 
     56 CB         30.9094   -0.0461  -13.7809 C.3       9 UNK        -0.1955 
     57 C          32.5532    0.0122  -11.8607 C.2       9 UNK         0.5031 
     58 O          33.5950    0.5652  -12.2150 O.2       9 UNK        -0.5390 
     59 N          32.5108   -1.0275  -11.0159 N.am      10 UNK        -0.4204 
     60 CA         33.6686   -1.5708  -10.3036 C.3       10 UNK         0.0237 
     61 CB         33.3080   -2.9538   -9.7362 C.3       10 UNK        -0.1985 
     62 C          34.1756   -0.6479   -9.1794 C.2       10 UNK         0.4970 
     63 O          35.3667   -0.6904   -8.8684 O.2       10 UNK        -0.4914 
     64 N          33.2766    0.1494   -8.5887 N.am      11 UNK        -0.4285 
     65 CA         33.5843    1.1097   -7.5205 C.3       11 UNK         0.1007 
     66 C          33.9108    2.5131   -8.0923 C.2       11 UNK         0.5703 
     67 N          33.1882    2.9825   -9.1025 N.am      11 UNK        -0.7361 
     68 O          34.8314    3.1762   -7.6208 O.2       11 UNK        -0.4986 
     69 C69        32.4396    1.2026   -6.4809 C.3       12 UNK        -0.0947 
     70 S70        32.0298   -0.4087   -5.7301 S.3       12 UNK        -0.2240 
     71 C71        32.4789   -0.1763   -3.9794 C.3       12 UNK         0.0194 
     72 H72        24.4255   -8.1257   -3.2367 H         1 UNK         0.0906 
     73 H73        25.6634   -8.0853   -4.4942 H         1 UNK         0.0906 
     74 H74        25.9779   -8.9250   -2.9744 H         1 UNK         0.0906 
     75 H75        26.6921   -6.0970   -4.5988 H         1 UNK         0.3140 
     76 H76        27.7204   -4.7643   -2.2376 H         1 UNK         0.1085 
     77 H77        27.8727   -4.1141   -5.2176 H         1 UNK         0.0836 
     78 H78        28.5624   -3.0776   -4.0138 H         1 UNK         0.0836 
     79 H79        30.0685   -5.1447   -1.7939 H         1 UNK         0.0731 
     80 H80        31.6093   -5.0907   -2.6045 H         1 UNK         0.0731 
     81 H81        32.2051   -2.8884   -3.9083 H         1 UNK         0.1312 
     82 H82        30.7314    0.6949   -2.0699 H         1 UNK         0.1406 
     83 H83        29.1340   -3.1113   -0.9208 H         1 UNK         0.1631 
     84 H84        29.2652    0.5054   -0.0945 H         1 UNK         0.0717 
     85 H85        28.7532   -1.0615    0.4706 H         1 UNK         0.0717 
     86 H86        26.7520    1.7878   -2.4320 H         1 UNK         0.0934 
     87 H87        28.4533    1.6199   -2.0835 H         1 UNK         0.0934 
     88 H88        28.3975   -0.4338   -3.7391 H         1 UNK         0.0739 
     89 H89        26.4105   -1.0094   -4.4472 H         1 UNK         0.3093 
     90 H90        23.7455    0.7926   -6.0541 H         1 UNK         0.0818 
     91 H91        24.2236   -0.8108   -7.8602 H         1 UNK         0.0819 
     92 H92        25.5364    0.3511   -7.7772 H         1 UNK         0.0819 
     93 H93        25.7557   -1.2628   -7.1170 H         1 UNK         0.0819 
     94 H94        24.5401   -1.6312   -4.5433 H         1 UNK         0.3041 
     95 H95        21.1768   -2.4152   -3.9892 H         1 UNK         0.0784 
     96 H96        21.2708   -3.6108   -6.1823 H         1 UNK         0.0793 
     97 H97        22.9042   -4.1589   -5.8330 H         1 UNK         0.0793 
     98 H98        21.5492   -4.7204   -4.8515 H         1 UNK         0.0793 
     99 H99        23.6059   -3.8818   -3.4890 H         1 UNK         0.3024 
    100 H100       24.9022   -1.9654   -0.9420 H         1 UNK         0.1171 
    101 H101       23.0190   -2.8648    0.4480 H         1 UNK         0.0786 
    102 H102       24.5023   -3.7652    0.7073 H         1 UNK         0.0786 
    103 H103       23.2213   -4.4455   -0.2966 H         1 UNK         0.0786 
    104 H104       25.5017   -4.6435   -1.3620 H         1 UNK         0.2977 
    105 H105       28.4318    2.9542   -3.5794 H         1 UNK         0.3127 
    106 H106       30.5696    3.2260   -5.3757 H         1 UNK         0.0770 
    107 H107       28.6908    5.3513   -4.2151 H         1 UNK         0.0814 
    108 H108       30.2550    5.6699   -4.9504 H         1 UNK         0.0814 
    109 H109       30.1685    4.7471   -3.4612 H         1 UNK         0.0814 
    110 H110       27.1881    3.1178   -6.1681 H         1 UNK         0.2983 
    111 H111       27.4114    4.6079   -8.6746 H         1 UNK         0.0947 
    112 H112       25.0888    3.8331   -9.0218 H         1 UNK         0.0806 
    113 H113       25.2614    4.5013   -7.4074 H         1 UNK         0.0806 
    114 H114       25.1996    2.7559   -7.6400 H         1 UNK         0.0806 
    115 H115       28.3886    1.4327   -7.6911 H         1 UNK         0.3000 
    116 H116       27.8862    0.0763  -10.2117 H         1 UNK         0.0850 
    117 H117       29.2376   -1.7284   -9.1896 H         1 UNK         0.0810 
    118 H118       29.7726   -0.6569   -7.9035 H         1 UNK         0.0810 
    119 H119       28.0822   -1.1361   -8.0069 H         1 UNK         0.0810 
    120 H120       29.3185   -0.2902  -11.8824 H         1 UNK         0.3040 
    121 H121       31.2995    1.6209  -12.4868 H         1 UNK         0.0766 
    122 H122       31.7292    0.1579  -14.4714 H         1 UNK         0.0812 
    123 H123       30.0096    0.3921  -14.2133 H         1 UNK         0.0812 
    124 H124       30.7749   -1.1280  -13.7463 H         1 UNK         0.0812 
    125 H125       31.6107   -1.4319  -10.8043 H         1 UNK         0.3205 
    126 H126       34.4831   -1.6963  -11.0204 H         1 UNK         0.0754 
    127 H127       34.1625   -3.3997   -9.2249 H         1 UNK         0.0769 
    128 H128       33.0105   -3.6430  -10.5268 H         1 UNK         0.0769 
    129 H129       32.4920   -2.8950   -9.0144 H         1 UNK         0.0769 
    130 H130       32.3314    0.1899   -8.9463 H         1 UNK         0.2981 
    131 H131       34.4727    0.7699   -6.9842 H         1 UNK         0.0541 
    132 H132       33.3948    3.8920   -9.4816 H         1 UNK         0.3459 
    133 H133       32.3787    2.4638   -9.4326 H         1 UNK         0.3459 
    134 H134       31.5306    1.5817   -6.9522 H         1 UNK         0.0612 
    135 H135       32.6970    1.9179   -5.6987 H         1 UNK         0.0612 
    136 H136       32.4043    0.8786   -3.7127 H         1 UNK         0.0624 
    137 H137       33.5200   -0.4657   -3.8316 H         1 UNK         0.0624 
@<TRIPOS>BOND
     1    1    2 1    
     2    1   72 1    
     3    1   73 1    
     4    1   74 1    
     5    2    3 2    
     6    2    4 am   BACKBONE|DICT|INTERRES
     7    4    5 1    
     8    4   75 1    
     9    5    6 1    
    10    5   35 1    
    11    5   76 1    
    12    6    7 1    
    13    6   77 1    
    14    6   78 1    
    15    7    8 1    
    16    8    9 1    
    17    8   79 1    
    18    8   80 1    
    19    9   10 ar   
    20    9   14 ar   
    21   10   11 ar   
    22   10   81 1    
    23   11   12 ar   
    24   11   71 1    
    25   12   13 ar   
    26   12   82 1    
    27   13   14 ar   
    28   13   15 1    
    29   14   83 1    
    30   15   16 1    
    31   15   84 1    
    32   15   85 1    
    33   16   17 1    
    34   17   18 1    
    35   17   86 1    
    36   17   87 1    
    37   18   19 1    
    38   18   37 1    
    39   18   88 1    
    40   19   20 am   BACKBONE|DICT|INTERRES
    41   19   89 1    
    42   20   21 2    
    43   20   22 1    
    44   22   23 1    
    45   22   24 1    
    46   22   90 1    
    47   23   91 1    
    48   23   92 1    
    49   23   93 1    
    50   24   25 am   BACKBONE|DICT|INTERRES
    51   24   94 1    
    52   25   26 2    
    53   25   27 1    
    54   27   28 1    
    55   27   29 1    
    56   27   95 1    
    57   28   96 1    
    58   28   97 1    
    59   28   98 1    
    60   29   30 am   BACKBONE|DICT|INTERRES
    61   29   99 1    
    62   30   31 2    
    63   30   32 1    
    64   32   33 1    
    65   32   34 1    
    66   32  100 1    
    67   33  101 1    
    68   33  102 1    
    69   33  103 1    
    70   34   35 am   BACKBONE|DICT|INTERRES
    71   34  104 1    
    72   35   36 2    
    73   37   38 2    
    74   37   39 am   BACKBONE|DICT|INTERRES
    75   39   40 1    
    76   39  105 1    
    77   40   41 1    
    78   40   42 1    
    79   40  106 1    
    80   41  107 1    
    81   41  108 1    
    82   41  109 1    
    83   42   43 2    
    84   42   44 am   BACKBONE|DICT|INTERRES
    85   44   45 1    
    86   44  110 1    
    87   45   46 1    
    88   45   47 1    
    89   45  111 1    
    90   46  112 1    
    91   46  113 1    
    92   46  114 1    
    93   47   48 2    
    94   47   49 am   BACKBONE|DICT|INTERRES
    95   49   50 1    
    96   49  115 1    
    97   50   51 1    
    98   50   52 1    
    99   50  116 1    
   100   51  117 1    
   101   51  118 1    
   102   51  119 1    
   103   52   53 2    
   104   52   54 am   BACKBONE|DICT|INTERRES
   105   54   55 1    
   106   54  120 1    
   107   55   56 1    
   108   55   57 1    
   109   55  121 1    
   110   56  122 1    
   111   56  123 1    
   112   56  124 1    
   113   57   58 2    
   114   57   59 am   BACKBONE|DICT|INTERRES
   115   59   60 1    
   116   59  125 1    
   117   60   61 1    
   118   60   62 1    
   119   60  126 1    
   120   61  127 1    
   121   61  128 1    
   122   61  129 1    
   123   62   63 2    
   124   62   64 am   BACKBONE|DICT|INTERRES
   125   64   65 1    
   126   64  130 1    
   127   65   66 1    
   128   65   69 1    
   129   65  131 1    
   130   66   67 am   BACKBONE|DICT|INTERRES
   131   66   68 2    
   132   67  132 1    
   133   67  133 1    
   134   69   70 1    
   135   69  134 1    
   136   69  135 1    
   137   70   71 1    
   138   71  136 1    
   139   71  137 1    
@<TRIPOS>SUBSTRUCTURE
     1 UNK         1 GROUP             0       ****    0 ROOT    
