@<TRIPOS>MOLECULE
3R137
137   139    1
SMALL
USER_CHARGES


@<TRIPOS>ATOM
      1 CA         27.8961   -4.0342    2.6691 C.3       0 UNK        -0.2020 
      2 C          27.8373   -3.4460    1.2677 C.2       0 UNK         0.4855 
      3 O          28.0474   -2.2453    1.0970 O.2       0 UNK        -0.5197 
      4 N          27.5357   -4.2764    0.2621 N.am      1 UNK        -0.4892 
      5 CA         27.4677   -3.9298   -1.1662 C.3       1 UNK         0.0835 
      6 C6         27.7217   -5.1823   -2.0497 C.3       12 UNK        -0.0855 
      7 S7         29.3741   -5.9080   -1.7593 S.3       12 UNK        -0.2931 
      8 C8         30.1528   -5.8060   -3.4126 C.3       12 UNK         0.0378 
      9 C9         30.3415   -4.3926   -3.9677 C.ar      12 UNK        -0.0802 
     10 C10        30.3557   -4.2073   -5.3551 C.ar      12 UNK        -0.0944 
     11 C11        30.5305   -2.9340   -5.9054 C.ar      12 UNK        -0.0787 
     12 C12        30.6841   -1.8362   -5.0564 C.ar      12 UNK        -0.0862 
     13 C13        30.6495   -1.9968   -3.6705 C.ar      12 UNK        -0.0733 
     14 C14        30.5119   -3.2801   -3.1333 C.ar      12 UNK        -0.0832 
     15 C15        30.7305   -0.7885   -2.7486 C.3       12 UNK         0.0240 
     16 S16        29.0861   -0.3810   -2.0733 S.3       12 UNK        -0.2522 
     17 C17        28.6009    1.1143   -3.0058 C.3       12 UNK        -0.0967 
     18 CA         28.2723    0.8720   -4.5007 C.3       5 UNK         0.0660 
     19 N          27.3320   -0.2309   -4.7096 N.am      5 UNK        -0.4015 
     20 C          27.2708   -0.9588   -5.8354 C.2       4 UNK         0.4946 
     21 O          28.0275   -0.8015   -6.7882 O.2       4 UNK        -0.5353 
     22 CA         26.1726   -2.0307   -5.9442 C.3       4 UNK         0.0277 
     23 CB         26.7446   -3.4031   -5.5674 C.3       4 UNK        -0.1981 
     24 N          24.9944   -1.7410   -5.1243 N.am      4 UNK        -0.4209 
     25 C          24.2058   -0.6696   -5.2995 C.2       3 UNK         0.4942 
     26 O          24.3668    0.1487   -6.2057 O.2       3 UNK        -0.5208 
     27 CA         23.1026   -0.4200   -4.2563 C.3       3 UNK         0.0250 
     28 CB         21.7635   -0.9925   -4.7461 C.3       3 UNK        -0.1990 
     29 N          23.4011   -0.9507   -2.9209 N.am      3 UNK        -0.4232 
     30 C          24.4768   -0.6439   -2.1805 C.2       2 UNK         0.4993 
     31 O          25.3640    0.1247   -2.5551 O.2       2 UNK        -0.5286 
     32 CA         24.6139   -1.3244   -0.8069 C.3       2 UNK         0.0209 
     33 CB         23.3723   -2.1342   -0.3664 C.3       2 UNK        -0.1931 
     34 N          25.8172   -2.1598   -0.7376 N.am      2 UNK        -0.4546 
     35 C          26.1498   -3.1970   -1.5204 C.2       1 UNK         0.5154 
     36 O          25.4561   -3.5848   -2.4638 O.2       1 UNK        -0.5181 
     37 C          27.7970    2.1747   -5.1802 C.2       5 UNK         0.5014 
     38 O          28.6162    3.0738   -5.3680 O.2       5 UNK        -0.5248 
     39 N          26.5049    2.2738   -5.5297 N.am      6 UNK        -0.4434 
     40 CA         25.9513    3.3768   -6.3189 C.3       6 UNK         0.0363 
     41 CB         24.4893    3.6245   -5.9111 C.3       6 UNK        -0.1936 
     42 C          26.0597    3.0793   -7.8233 C.2       6 UNK         0.5081 
     43 O          26.3854    3.9777   -8.6003 O.2       6 UNK        -0.5248 
     44 N          25.7894    1.8238   -8.2026 N.am      7 UNK        -0.4718 
     45 CA         25.9520    1.2887   -9.5552 C.3       7 UNK         0.0273 
     46 CB         25.0686    0.0325   -9.6728 C.3       7 UNK        -0.1935 
     47 C          27.4252    0.9630   -9.8784 C.2       7 UNK         0.5018 
     48 O          28.3092    1.1755   -9.0464 O.2       7 UNK        -0.5186 
     49 N          27.6617    0.4465  -11.0964 N.am      8 UNK        -0.4240 
     50 CA         28.9062   -0.1837  -11.5758 C.3       8 UNK         0.0235 
     51 CB         29.0441   -1.5834  -10.9380 C.3       8 UNK        -0.2000 
     52 C          30.1876    0.6579  -11.3903 C.2       8 UNK         0.4941 
     53 O          31.2616    0.0952  -11.1664 O.2       8 UNK        -0.5273 
     54 N          30.0442    1.9924  -11.4247 N.am      9 UNK        -0.4262 
     55 CA         31.0672    3.0001  -11.1062 C.3       9 UNK         0.0264 
     56 CB         32.1334    3.0528  -12.2215 C.3       9 UNK        -0.1955 
     57 C          31.6909    2.8326   -9.7000 C.2       9 UNK         0.5031 
     58 O          32.8388    3.2314   -9.4975 O.2       9 UNK        -0.5390 
     59 N          30.9331    2.2318   -8.7676 N.am      10 UNK        -0.4204 
     60 CA         31.3247    1.8210   -7.4158 C.3       10 UNK         0.0237 
     61 CB         31.7062    3.0400   -6.5483 C.3       10 UNK        -0.1985 
     62 C          32.3965    0.7105   -7.3782 C.2       10 UNK         0.4970 
     63 O          33.0459    0.5549   -6.3424 O.2       10 UNK        -0.4914 
     64 N          32.5461   -0.0563   -8.4714 N.am      11 UNK        -0.4285 
     65 CA         33.5424   -1.1275   -8.6540 C.3       11 UNK         0.1007 
     66 C          35.0191   -0.6187   -8.6445 C.2       11 UNK         0.5703 
     67 N          35.9948   -1.5148   -8.7265 N.am      11 UNK        -0.7361 
     68 O          35.3049    0.5771   -8.6212 O.2       11 UNK        -0.4986 
     69 C69        33.2916   -2.3458   -7.7079 C.3       12 UNK        -0.0947 
     70 S70        31.9278   -3.4110   -8.2818 S.3       12 UNK        -0.2240 
     71 C71        30.4844   -2.7267   -7.4137 C.3       12 UNK         0.0194 
     72 H72        27.1664   -3.5438    3.3128 H         1 UNK         0.0906 
     73 H73        27.6872   -5.1039    2.6723 H         1 UNK         0.0906 
     74 H74        28.8861   -3.8812    3.0979 H         1 UNK         0.0906 
     75 H75        27.3591   -5.2493    0.4700 H         1 UNK         0.3140 
     76 H76        28.2610   -3.2114   -1.3769 H         1 UNK         0.1085 
     77 H77        27.6303   -4.9425   -3.1077 H         1 UNK         0.0836 
     78 H78        26.9677   -5.9469   -1.8538 H         1 UNK         0.0836 
     79 H79        31.1309   -6.2858   -3.3619 H         1 UNK         0.0731 
     80 H80        29.5548   -6.4008   -4.1050 H         1 UNK         0.0731 
     81 H81        30.2251   -5.0547   -6.0144 H         1 UNK         0.1312 
     82 H82        30.8023   -0.8510   -5.4804 H         1 UNK         0.1406 
     83 H83        30.5137   -3.4015   -2.0593 H         1 UNK         0.1631 
     84 H84        31.1540    0.0731   -3.2672 H         1 UNK         0.0717 
     85 H85        31.4061   -1.0096   -1.9211 H         1 UNK         0.0717 
     86 H86        29.3978    1.8542   -2.9069 H         1 UNK         0.0934 
     87 H87        27.7344    1.5411   -2.4968 H         1 UNK         0.0934 
     88 H88        29.2089    0.6126   -4.9918 H         1 UNK         0.0739 
     89 H89        26.6639   -0.3878   -3.9606 H         1 UNK         0.3093 
     90 H90        25.8464   -2.0701   -6.9852 H         1 UNK         0.0818 
     91 H91        25.9754   -4.1751   -5.5430 H         1 UNK         0.0819 
     92 H92        27.5015   -3.7165   -6.2872 H         1 UNK         0.0819 
     93 H93        27.2266   -3.3659   -4.5920 H         1 UNK         0.0819 
     94 H94        24.8265   -2.3499   -4.3320 H         1 UNK         0.3041 
     95 H95        22.9962    0.6623   -4.1572 H         1 UNK         0.0784 
     96 H96        21.5059   -0.5954   -5.7292 H         1 UNK         0.0793 
     97 H97        21.7961   -2.0795   -4.8320 H         1 UNK         0.0793 
     98 H98        20.9483   -0.7319   -4.0708 H         1 UNK         0.0793 
     99 H99        22.7397   -1.6120   -2.5403 H         1 UNK         0.3024 
    100 H100       24.7548   -0.5160   -0.0875 H         1 UNK         0.1171 
    101 H101       23.5051   -2.5278    0.6416 H         1 UNK         0.0786 
    102 H102       23.1742   -2.9827   -1.0224 H         1 UNK         0.0786 
    103 H103       22.4781   -1.5094   -0.3448 H         1 UNK         0.0786 
    104 H104       26.4917   -1.9101   -0.0185 H         1 UNK         0.2977 
    105 H105       25.8950    1.4818   -5.3719 H         1 UNK         0.3127 
    106 H106       26.5130    4.2912   -6.1157 H         1 UNK         0.0770 
    107 H107       23.8547    2.7616   -6.1142 H         1 UNK         0.0814 
    108 H108       24.0726    4.4693   -6.4610 H         1 UNK         0.0814 
    109 H109       24.4085    3.8573   -4.8493 H         1 UNK         0.0814 
    110 H110       25.4974    1.1598   -7.4932 H         1 UNK         0.2983 
    111 H111       25.6049    2.0359  -10.2721 H         1 UNK         0.0947 
    112 H112       25.0468   -0.3526  -10.6926 H         1 UNK         0.0806 
    113 H113       24.0369    0.2457   -9.3916 H         1 UNK         0.0806 
    114 H114       25.4283   -0.7699   -9.0276 H         1 UNK         0.0806 
    115 H115       26.8779    0.3707  -11.7301 H         1 UNK         0.3000 
    116 H116       28.7918   -0.3184  -12.6523 H         1 UNK         0.0850 
    117 H117       29.8973   -2.1268  -11.3465 H         1 UNK         0.0810 
    118 H118       28.1590   -2.1926  -11.1201 H         1 UNK         0.0810 
    119 H119       29.1862   -1.5162   -9.8588 H         1 UNK         0.0810 
    120 H120       29.1149    2.3525  -11.5928 H         1 UNK         0.3040 
    121 H121       30.5537    3.9625  -11.0925 H         1 UNK         0.0766 
    122 H122       32.8187    3.8879  -12.0711 H         1 UNK         0.0812 
    123 H123       31.6765    3.1845  -13.2022 H         1 UNK         0.0812 
    124 H124       32.7326    2.1421  -12.2496 H         1 UNK         0.0812 
    125 H125       29.9941    1.9303   -9.0315 H         1 UNK         0.3205 
    126 H126       30.4263    1.3788   -6.9833 H         1 UNK         0.0754 
    127 H127       31.7825    2.7610   -5.4968 H         1 UNK         0.0769 
    128 H128       30.9554    3.8271   -6.6174 H         1 UNK         0.0769 
    129 H129       32.6665    3.4638   -6.8432 H         1 UNK         0.0769 
    130 H130       31.9952    0.1532   -9.2978 H         1 UNK         0.2981 
    131 H131       33.3944   -1.4638   -9.6809 H         1 UNK         0.0541 
    132 H132       36.9505   -1.1950   -8.7422 H         1 UNK         0.3459 
    133 H133       35.7954   -2.5012   -8.7817 H         1 UNK         0.3459 
    134 H134       33.1177   -2.0318   -6.6790 H         1 UNK         0.0612 
    135 H135       34.1609   -3.0014   -7.6594 H         1 UNK         0.0612 
    136 H136       30.3952   -1.6681   -7.6586 H         1 UNK         0.0624 
    137 H137       29.5845   -3.2008   -7.8072 H         1 UNK         0.0624 
@<TRIPOS>BOND
     1    1    2 1    
     2    1   72 1    
     3    1   73 1    
     4    1   74 1    
     5    2    3 2    
     6    2    4 am   BACKBONE|DICT|INTERRES
     7    4    5 1    
     8    4   75 1    
     9    5    6 1    
    10    5   35 1    
    11    5   76 1    
    12    6    7 1    
    13    6   77 1    
    14    6   78 1    
    15    7    8 1    
    16    8    9 1    
    17    8   79 1    
    18    8   80 1    
    19    9   10 ar   
    20    9   14 ar   
    21   10   11 ar   
    22   10   81 1    
    23   11   12 ar   
    24   11   71 1    
    25   12   13 ar   
    26   12   82 1    
    27   13   14 ar   
    28   13   15 1    
    29   14   83 1    
    30   15   16 1    
    31   15   84 1    
    32   15   85 1    
    33   16   17 1    
    34   17   18 1    
    35   17   86 1    
    36   17   87 1    
    37   18   19 1    
    38   18   37 1    
    39   18   88 1    
    40   19   20 am   BACKBONE|DICT|INTERRES
    41   19   89 1    
    42   20   21 2    
    43   20   22 1    
    44   22   23 1    
    45   22   24 1    
    46   22   90 1    
    47   23   91 1    
    48   23   92 1    
    49   23   93 1    
    50   24   25 am   BACKBONE|DICT|INTERRES
    51   24   94 1    
    52   25   26 2    
    53   25   27 1    
    54   27   28 1    
    55   27   29 1    
    56   27   95 1    
    57   28   96 1    
    58   28   97 1    
    59   28   98 1    
    60   29   30 am   BACKBONE|DICT|INTERRES
    61   29   99 1    
    62   30   31 2    
    63   30   32 1    
    64   32   33 1    
    65   32   34 1    
    66   32  100 1    
    67   33  101 1    
    68   33  102 1    
    69   33  103 1    
    70   34   35 am   BACKBONE|DICT|INTERRES
    71   34  104 1    
    72   35   36 2    
    73   37   38 2    
    74   37   39 am   BACKBONE|DICT|INTERRES
    75   39   40 1    
    76   39  105 1    
    77   40   41 1    
    78   40   42 1    
    79   40  106 1    
    80   41  107 1    
    81   41  108 1    
    82   41  109 1    
    83   42   43 2    
    84   42   44 am   BACKBONE|DICT|INTERRES
    85   44   45 1    
    86   44  110 1    
    87   45   46 1    
    88   45   47 1    
    89   45  111 1    
    90   46  112 1    
    91   46  113 1    
    92   46  114 1    
    93   47   48 2    
    94   47   49 am   BACKBONE|DICT|INTERRES
    95   49   50 1    
    96   49  115 1    
    97   50   51 1    
    98   50   52 1    
    99   50  116 1    
   100   51  117 1    
   101   51  118 1    
   102   51  119 1    
   103   52   53 2    
   104   52   54 am   BACKBONE|DICT|INTERRES
   105   54   55 1    
   106   54  120 1    
   107   55   56 1    
   108   55   57 1    
   109   55  121 1    
   110   56  122 1    
   111   56  123 1    
   112   56  124 1    
   113   57   58 2    
   114   57   59 am   BACKBONE|DICT|INTERRES
   115   59   60 1    
   116   59  125 1    
   117   60   61 1    
   118   60   62 1    
   119   60  126 1    
   120   61  127 1    
   121   61  128 1    
   122   61  129 1    
   123   62   63 2    
   124   62   64 am   BACKBONE|DICT|INTERRES
   125   64   65 1    
   126   64  130 1    
   127   65   66 1    
   128   65   69 1    
   129   65  131 1    
   130   66   67 am   BACKBONE|DICT|INTERRES
   131   66   68 2    
   132   67  132 1    
   133   67  133 1    
   134   69   70 1    
   135   69  134 1    
   136   69  135 1    
   137   70   71 1    
   138   71  136 1    
   139   71  137 1    
@<TRIPOS>SUBSTRUCTURE
     1 UNK         1 GROUP             0       ****    0 ROOT    
