@<TRIPOS>MOLECULE
3R137
137   139    1
SMALL
USER_CHARGES


@<TRIPOS>ATOM
      1 CA         29.5337   -3.4893    2.6352 C.3       0 UNK        -0.2020 
      2 C          28.9701   -3.2305    1.2459 C.2       0 UNK         0.4855 
      3 O          28.7045   -2.0794    0.8979 O.2       0 UNK        -0.5197 
      4 N          28.7941   -4.2904    0.4479 N.am      1 UNK        -0.4892 
      5 CA         28.2333   -4.2402   -0.9069 C.3       1 UNK         0.0835 
      6 C6         28.4468   -5.5747   -1.6743 C.3       12 UNK        -0.0855 
      7 S7         30.1596   -6.2192   -1.6286 S.3       12 UNK        -0.2931 
      8 C8         30.7621   -5.9100   -3.3197 C.3       12 UNK         0.0378 
      9 C9         31.3620   -4.5187   -3.4451 C.ar      12 UNK        -0.0802 
     10 C10        32.7435   -4.3322   -3.3395 C.ar      12 UNK        -0.0944 
     11 C11        33.2956   -3.0512   -3.4335 C.ar      12 UNK        -0.0787 
     12 C12        32.4519   -1.9545   -3.6280 C.ar      12 UNK        -0.0862 
     13 C13        31.0695   -2.1251   -3.7502 C.ar      12 UNK        -0.0733 
     14 C14        30.5341   -3.4159   -3.6611 C.ar      12 UNK        -0.0832 
     15 C15        30.1966   -0.8892   -3.9559 C.3       12 UNK         0.0240 
     16 S16        28.5905   -1.2143   -4.7575 S.3       12 UNK        -0.2522 
     17 C17        28.0621    0.4848   -5.1369 C.3       12 UNK        -0.0967 
     18 CA         27.2037    0.5265   -6.4203 C.3       5 UNK         0.0660 
     19 N          25.9000   -0.1190   -6.2297 N.am      5 UNK        -0.4015 
     20 C          24.9526   -0.2571   -7.1712 C.2       4 UNK         0.4946 
     21 O          25.1109    0.0766   -8.3463 O.2       4 UNK        -0.5353 
     22 CA         23.5743   -0.7872   -6.7338 C.3       4 UNK         0.0277 
     23 CB         23.4468   -2.2786   -7.0810 C.3       4 UNK        -0.1981 
     24 N          23.2732   -0.5943   -5.3114 N.am      4 UNK        -0.4209 
     25 C          23.2926    0.5722   -4.6468 C.2       3 UNK         0.4942 
     26 O          23.5021    1.6614   -5.1827 O.2       3 UNK        -0.5208 
     27 CA         23.1176    0.5077   -3.1171 C.3       3 UNK         0.0250 
     28 CB         21.6730    0.8616   -2.7292 C.3       3 UNK        -0.1990 
     29 N          23.4808   -0.7838   -2.5139 N.am      3 UNK        -0.4232 
     30 C          24.6857   -1.3682   -2.5946 C.2       2 UNK         0.4993 
     31 O          25.6383   -0.8921   -3.2158 O.2       2 UNK        -0.5286 
     32 CA         24.8218   -2.7403   -1.9272 C.3       2 UNK         0.0209 
     33 CB         24.0965   -3.8226   -2.7512 C.3       2 UNK        -0.1931 
     34 N          26.2360   -3.0935   -1.7976 N.am      2 UNK        -0.4546 
     35 C          26.7254   -3.9080   -0.8552 C.2       1 UNK         0.5154 
     36 O          26.0232   -4.4357    0.0128 O.2       1 UNK        -0.5181 
     37 C          27.1068    1.9724   -6.9484 C.2       5 UNK         0.5014 
     38 O          28.0251    2.3998   -7.6478 O.2       5 UNK        -0.5248 
     39 N          26.0033    2.6826   -6.6626 N.am      6 UNK        -0.4434 
     40 CA         25.7229    4.0160   -7.2043 C.3       6 UNK         0.0363 
     41 CB         24.4825    4.5979   -6.5083 C.3       6 UNK        -0.1936 
     42 C          25.5377    4.0344   -8.7348 C.2       6 UNK         0.5081 
     43 O          25.7923    5.0683   -9.3533 O.2       6 UNK        -0.5248 
     44 N          25.1093    2.9048   -9.3150 N.am      7 UNK        -0.4718 
     45 CA         24.9732    2.7103  -10.7579 C.3       7 UNK         0.0273 
     46 CB         23.6488    1.9844  -11.0487 C.3       7 UNK        -0.1935 
     47 C          26.1583    1.9147  -11.3249 C.2       7 UNK         0.5018 
     48 O          26.6715    2.2745  -12.3849 O.2       7 UNK        -0.5186 
     49 N          26.5601    0.8425  -10.6265 N.am      8 UNK        -0.4240 
     50 CA         27.5930   -0.0971  -11.0698 C.3       8 UNK         0.0235 
     51 CB         27.4780   -1.3991  -10.2592 C.3       8 UNK        -0.2000 
     52 C          29.0270    0.4537  -10.9985 C.2       8 UNK         0.4941 
     53 O          29.8633    0.0151  -11.7890 O.2       8 UNK        -0.5273 
     54 N          29.2944    1.3726  -10.0554 N.am      9 UNK        -0.4262 
     55 CA         30.5987    1.9891   -9.7683 C.3       9 UNK         0.0264 
     56 CB         31.0393    2.9059  -10.9295 C.3       9 UNK        -0.1955 
     57 C          31.6857    0.9712   -9.3595 C.2       9 UNK         0.5031 
     58 O          32.8607    1.1561   -9.6893 O.2       9 UNK        -0.5390 
     59 N          31.2764   -0.0903   -8.6479 N.am      10 UNK        -0.4204 
     60 CA         32.1473   -1.1587   -8.1529 C.3       10 UNK         0.0237 
     61 CB         31.2958   -2.2593   -7.5020 C.3       10 UNK        -0.1985 
     62 C          33.2008   -0.6215   -7.1708 C.2       10 UNK         0.4970 
     63 O          32.8564    0.1489   -6.2721 O.2       10 UNK        -0.4914 
     64 N          34.4591   -1.0195   -7.3926 N.am      11 UNK        -0.4285 
     65 CA         35.6600   -0.5398   -6.6861 C.3       11 UNK         0.1007 
     66 C          35.9933    0.9692   -6.9141 C.2       11 UNK         0.5703 
     67 N          35.3712    1.6613   -7.8633 N.am      11 UNK        -0.7361 
     68 O          36.8649    1.5193   -6.2446 O.2       11 UNK        -0.4986 
     69 C69        35.6934   -0.9412   -5.1821 C.3       12 UNK        -0.0947 
     70 S70        35.6151   -2.7473   -4.9255 S.3       12 UNK        -0.2240 
     71 C71        34.7990   -2.8550   -3.3016 C.3       12 UNK         0.0194 
     72 H72        28.8286   -3.1523    3.3947 H         1 UNK         0.0906 
     73 H73        30.4667   -2.9427    2.7694 H         1 UNK         0.0906 
     74 H74        29.7337   -4.5474    2.8039 H         1 UNK         0.0906 
     75 H75        29.0257   -5.2147    0.7830 H         1 UNK         0.3140 
     76 H76        28.7455   -3.4384   -1.4418 H         1 UNK         0.1085 
     77 H77        28.1240   -5.4678   -2.7114 H         1 UNK         0.0836 
     78 H78        27.8114   -6.3561   -1.2516 H         1 UNK         0.0836 
     79 H79        31.5160   -6.6611   -3.5608 H         1 UNK         0.0731 
     80 H80        29.9598   -6.0493   -4.0457 H         1 UNK         0.0731 
     81 H81        33.3893   -5.1843   -3.1760 H         1 UNK         0.1312 
     82 H82        32.8725   -0.9608   -3.6913 H         1 UNK         0.1406 
     83 H83        29.4695   -3.5731   -3.7487 H         1 UNK         0.1631 
     84 H84        30.7464   -0.1682   -4.5626 H         1 UNK         0.0717 
     85 H85        30.0193   -0.4168   -2.9889 H         1 UNK         0.0717 
     86 H86        27.5147    0.8889   -4.2829 H         1 UNK         0.0934 
     87 H87        28.9525    1.1069   -5.2517 H         1 UNK         0.0934 
     88 H88        27.7243   -0.0404   -7.1933 H         1 UNK         0.0739 
     89 H89        25.7022   -0.4294   -5.2837 H         1 UNK         0.3093 
     90 H90        22.8243   -0.2340   -7.3026 H         1 UNK         0.0818 
     91 H91        23.6432   -2.4505   -8.1405 H         1 UNK         0.0819 
     92 H92        24.1543   -2.8870   -6.5159 H         1 UNK         0.0819 
     93 H93        22.4428   -2.6509   -6.8763 H         1 UNK         0.0819 
     94 H94        23.0890   -1.4297   -4.7764 H         1 UNK         0.3041 
     95 H95        23.7812    1.2625   -2.6902 H         1 UNK         0.0784 
     96 H96        21.3840    1.8295   -3.1420 H         1 UNK         0.0793 
     97 H97        20.9617    0.1234   -3.1018 H         1 UNK         0.0793 
     98 H98        21.5560    0.9268   -1.6473 H         1 UNK         0.0793 
     99 H99        22.7513   -1.2521   -1.9948 H         1 UNK         0.3024 
    100 H100       24.3723   -2.6715   -0.9334 H         1 UNK         0.1171 
    101 H101       23.0345   -3.5987   -2.8580 H         1 UNK         0.0786 
    102 H102       24.5158   -3.9117   -3.7544 H         1 UNK         0.0786 
    103 H103       24.1682   -4.7999   -2.2733 H         1 UNK         0.0786 
    104 H104       26.8476   -2.6207   -2.4528 H         1 UNK         0.2977 
    105 H105       25.2714    2.2612   -6.0982 H         1 UNK         0.3127 
    106 H106       26.5771    4.6555   -6.9714 H         1 UNK         0.0770 
    107 H107       23.5921    4.0000   -6.7071 H         1 UNK         0.0814 
    108 H108       24.2791    5.6116   -6.8561 H         1 UNK         0.0814 
    109 H109       24.6183    4.6468   -5.4278 H         1 UNK         0.0814 
    110 H110       24.9569    2.0869   -8.7353 H         1 UNK         0.2983 
    111 H111       24.9458    3.6750  -11.2697 H         1 UNK         0.0947 
    112 H112       23.5200    1.8220  -12.1197 H         1 UNK         0.0806 
    113 H113       22.7953    2.5690  -10.7052 H         1 UNK         0.0806 
    114 H114       23.6027    1.0090  -10.5624 H         1 UNK         0.0806 
    115 H115       26.0500    0.5919   -9.7804 H         1 UNK         0.3000 
    116 H116       27.3939   -0.3378  -12.1166 H         1 UNK         0.0850 
    117 H117       28.2061   -2.1370  -10.5991 H         1 UNK         0.0810 
    118 H118       26.4897   -1.8466  -10.3671 H         1 UNK         0.0810 
    119 H119       27.6536   -1.2343   -9.1968 H         1 UNK         0.0810 
    120 H120       28.5459    1.6678   -9.4352 H         1 UNK         0.3040 
    121 H121       30.4463    2.6242   -8.8945 H         1 UNK         0.0766 
    122 H122       31.2752    2.3357  -11.8285 H         1 UNK         0.0812 
    123 H123       31.9312    3.4741  -10.6627 H         1 UNK         0.0812 
    124 H124       30.2613    3.6259  -11.1829 H         1 UNK         0.0812 
    125 H125       30.3019   -0.1449   -8.3960 H         1 UNK         0.3205 
    126 H126       32.6567   -1.5892   -9.0178 H         1 UNK         0.0754 
    127 H127       31.9232   -3.0613   -7.1099 H         1 UNK         0.0769 
    128 H128       30.6049   -2.7057   -8.2174 H         1 UNK         0.0769 
    129 H129       30.7118   -1.8716   -6.6691 H         1 UNK         0.0769 
    130 H130       34.6393   -1.6459   -8.1634 H         1 UNK         0.2981 
    131 H131       36.4887   -1.0610   -7.1664 H         1 UNK         0.0541 
    132 H132       35.6164    2.6286   -8.0004 H         1 UNK         0.3459 
    133 H133       34.6377    1.2470   -8.4246 H         1 UNK         0.3459 
    134 H134       34.8854   -0.4505   -4.6407 H         1 UNK         0.0612 
    135 H135       36.6179   -0.5993   -4.7139 H         1 UNK         0.0612 
    136 H136       35.2354   -3.6909   -2.7528 H         1 UNK         0.0624 
    137 H137       35.0152   -1.9637   -2.7106 H         1 UNK         0.0624 
@<TRIPOS>BOND
     1    1    2 1    
     2    1   72 1    
     3    1   73 1    
     4    1   74 1    
     5    2    3 2    
     6    2    4 am   BACKBONE|DICT|INTERRES
     7    4    5 1    
     8    4   75 1    
     9    5    6 1    
    10    5   35 1    
    11    5   76 1    
    12    6    7 1    
    13    6   77 1    
    14    6   78 1    
    15    7    8 1    
    16    8    9 1    
    17    8   79 1    
    18    8   80 1    
    19    9   10 ar   
    20    9   14 ar   
    21   10   11 ar   
    22   10   81 1    
    23   11   12 ar   
    24   11   71 1    
    25   12   13 ar   
    26   12   82 1    
    27   13   14 ar   
    28   13   15 1    
    29   14   83 1    
    30   15   16 1    
    31   15   84 1    
    32   15   85 1    
    33   16   17 1    
    34   17   18 1    
    35   17   86 1    
    36   17   87 1    
    37   18   19 1    
    38   18   37 1    
    39   18   88 1    
    40   19   20 am   BACKBONE|DICT|INTERRES
    41   19   89 1    
    42   20   21 2    
    43   20   22 1    
    44   22   23 1    
    45   22   24 1    
    46   22   90 1    
    47   23   91 1    
    48   23   92 1    
    49   23   93 1    
    50   24   25 am   BACKBONE|DICT|INTERRES
    51   24   94 1    
    52   25   26 2    
    53   25   27 1    
    54   27   28 1    
    55   27   29 1    
    56   27   95 1    
    57   28   96 1    
    58   28   97 1    
    59   28   98 1    
    60   29   30 am   BACKBONE|DICT|INTERRES
    61   29   99 1    
    62   30   31 2    
    63   30   32 1    
    64   32   33 1    
    65   32   34 1    
    66   32  100 1    
    67   33  101 1    
    68   33  102 1    
    69   33  103 1    
    70   34   35 am   BACKBONE|DICT|INTERRES
    71   34  104 1    
    72   35   36 2    
    73   37   38 2    
    74   37   39 am   BACKBONE|DICT|INTERRES
    75   39   40 1    
    76   39  105 1    
    77   40   41 1    
    78   40   42 1    
    79   40  106 1    
    80   41  107 1    
    81   41  108 1    
    82   41  109 1    
    83   42   43 2    
    84   42   44 am   BACKBONE|DICT|INTERRES
    85   44   45 1    
    86   44  110 1    
    87   45   46 1    
    88   45   47 1    
    89   45  111 1    
    90   46  112 1    
    91   46  113 1    
    92   46  114 1    
    93   47   48 2    
    94   47   49 am   BACKBONE|DICT|INTERRES
    95   49   50 1    
    96   49  115 1    
    97   50   51 1    
    98   50   52 1    
    99   50  116 1    
   100   51  117 1    
   101   51  118 1    
   102   51  119 1    
   103   52   53 2    
   104   52   54 am   BACKBONE|DICT|INTERRES
   105   54   55 1    
   106   54  120 1    
   107   55   56 1    
   108   55   57 1    
   109   55  121 1    
   110   56  122 1    
   111   56  123 1    
   112   56  124 1    
   113   57   58 2    
   114   57   59 am   BACKBONE|DICT|INTERRES
   115   59   60 1    
   116   59  125 1    
   117   60   61 1    
   118   60   62 1    
   119   60  126 1    
   120   61  127 1    
   121   61  128 1    
   122   61  129 1    
   123   62   63 2    
   124   62   64 am   BACKBONE|DICT|INTERRES
   125   64   65 1    
   126   64  130 1    
   127   65   66 1    
   128   65   69 1    
   129   65  131 1    
   130   66   67 am   BACKBONE|DICT|INTERRES
   131   66   68 2    
   132   67  132 1    
   133   67  133 1    
   134   69   70 1    
   135   69  134 1    
   136   69  135 1    
   137   70   71 1    
   138   71  136 1    
   139   71  137 1    
@<TRIPOS>SUBSTRUCTURE
     1 UNK         1 GROUP             0       ****    0 ROOT    
