@<TRIPOS>MOLECULE
3R137
137   139    1
SMALL
USER_CHARGES


@<TRIPOS>ATOM
      1 CA         26.5702   -2.7864    2.8639 C.3       0 UNK        -0.2020 
      2 C          26.9116   -2.3353    1.4522 C.2       0 UNK         0.4855 
      3 O          26.8187   -1.1458    1.1483 O.2       0 UNK        -0.5197 
      4 N          27.2910   -3.2757    0.5782 N.am      1 UNK        -0.4892 
      5 CA         27.6973   -3.0505   -0.8178 C.3       1 UNK         0.0835 
      6 C6         28.6559   -4.1701   -1.3051 C.3       12 UNK        -0.0855 
      7 S7         30.1832   -4.2288   -0.3000 S.3       12 UNK        -0.2931 
      8 C8         31.5066   -4.0515   -1.5492 C.3       12 UNK         0.0378 
      9 C9         31.4189   -2.8008   -2.4242 C.ar      12 UNK        -0.0802 
     10 C10        31.8981   -2.8602   -3.7353 C.ar      12 UNK        -0.0944 
     11 C11        31.8268   -1.7456   -4.5753 C.ar      12 UNK        -0.0787 
     12 C12        31.2508   -0.5621   -4.1050 C.ar      12 UNK        -0.0862 
     13 C13        30.7783   -0.4824   -2.7922 C.ar      12 UNK        -0.0733 
     14 C14        30.8893   -1.5946   -1.9512 C.ar      12 UNK        -0.0832 
     15 C15        30.1415    0.7959   -2.2700 C.3       12 UNK         0.0240 
     16 S16        28.3547    0.5604   -2.0221 S.3       12 UNK        -0.2522 
     17 C17        27.6152    1.6498   -3.2804 C.3       12 UNK        -0.0967 
     18 CA         27.8419    1.2178   -4.7541 C.3       5 UNK         0.0660 
     19 N          27.6112   -0.2059   -4.9963 N.am      5 UNK        -0.4015 
     20 C          28.0355   -0.8685   -6.0818 C.2       4 UNK         0.4946 
     21 O          28.7149   -0.3638   -6.9756 O.2       4 UNK        -0.5353 
     22 CA         27.6012   -2.3361   -6.2124 C.3       4 UNK         0.0277 
     23 CB         28.5644   -3.2494   -5.4407 C.3       4 UNK        -0.1981 
     24 N          26.2272   -2.5553   -5.7538 N.am      4 UNK        -0.4209 
     25 C          25.1479   -2.0331   -6.3580 C.2       3 UNK         0.4942 
     26 O          25.1979   -1.3501   -7.3806 O.2       3 UNK        -0.5208 
     27 CA         23.7832   -2.2699   -5.6908 C.3       3 UNK         0.0250 
     28 CB         23.1489   -3.5679   -6.2147 C.3       3 UNK        -0.1990 
     29 N          23.8297   -2.3074   -4.2275 N.am      3 UNK        -0.4232 
     30 C          24.3190   -1.3492   -3.4273 C.2       2 UNK         0.4993 
     31 O          24.8178   -0.2987   -3.8360 O.2       2 UNK        -0.5286 
     32 CA         24.2699   -1.6153   -1.9135 C.3       2 UNK         0.0209 
     33 CB         23.2601   -2.7104   -1.5012 C.3       2 UNK        -0.1931 
     34 N          25.5893   -1.9212   -1.3523 N.am      2 UNK        -0.4546 
     35 C          26.4678   -2.8593   -1.7380 C.2       1 UNK         0.5154 
     36 O          26.3214   -3.5676   -2.7375 O.2       1 UNK        -0.5181 
     37 C          26.9543    2.0600   -5.6858 C.2       5 UNK         0.5014 
     38 O          27.4613    2.9594   -6.3589 O.2       5 UNK        -0.5248 
     39 N          25.6499    1.7366   -5.7008 N.am      6 UNK        -0.4434 
     40 CA         24.5942    2.4440   -6.4317 C.3       6 UNK         0.0363 
     41 CB         23.2329    1.8089   -6.1124 C.3       6 UNK        -0.1936 
     42 C          24.8135    2.5036   -7.9507 C.2       6 UNK         0.5081 
     43 O          24.4864    3.5186   -8.5647 O.2       6 UNK        -0.5248 
     44 N          25.4217    1.4583   -8.5262 N.am      7 UNK        -0.4718 
     45 CA         25.8516    1.3857   -9.9274 C.3       7 UNK         0.0273 
     46 CB         25.9772   -0.0971  -10.3207 C.3       7 UNK        -0.1935 
     47 C          27.1402    2.1907  -10.2249 C.2       7 UNK         0.5018 
     48 O          27.9273    1.7815  -11.0789 O.2       7 UNK        -0.5186 
     49 N          27.3277    3.3204   -9.5255 N.am      8 UNK        -0.4240 
     50 CA         28.4534    4.2586   -9.5906 C.3       8 UNK         0.0235 
     51 CB         28.4613    5.0030  -10.9433 C.3       8 UNK        -0.2000 
     52 C          29.8034    3.5971   -9.2536 C.2       8 UNK         0.4941 
     53 O          30.7802    3.8035   -9.9764 O.2       8 UNK        -0.5273 
     54 N          29.8212    2.8192   -8.1584 N.am      9 UNK        -0.4262 
     55 CA         30.9456    2.0158   -7.6585 C.3       9 UNK         0.0264 
     56 CB         32.0763    2.9181   -7.1225 C.3       9 UNK        -0.1955 
     57 C          31.4337    1.0006   -8.7097 C.2       9 UNK         0.5031 
     58 O          32.5555    1.1067   -9.2127 O.2       9 UNK        -0.5390 
     59 N          30.5709    0.0283   -9.0294 N.am      10 UNK        -0.4204 
     60 CA         30.7835   -1.0180  -10.0355 C.3       10 UNK         0.0237 
     61 CB         29.4170   -1.5706  -10.4780 C.3       10 UNK        -0.1985 
     62 C          31.7384   -2.1251   -9.5471 C.2       10 UNK         0.4970 
     63 O          31.3799   -3.3040   -9.5526 O.2       10 UNK        -0.4914 
     64 N          32.9342   -1.7185   -9.1126 N.am      11 UNK        -0.4285 
     65 CA         33.9925   -2.5921   -8.5901 C.3       11 UNK         0.1007 
     66 C          34.8678   -3.2537   -9.6952 C.2       11 UNK         0.5703 
     67 N          34.7204   -2.9025  -10.9677 N.am      11 UNK        -0.7361 
     68 O          35.6903   -4.1149   -9.3923 O.2       11 UNK        -0.4986 
     69 C69        34.8719   -1.8453   -7.5502 C.3       12 UNK        -0.0947 
     70 S70        34.0605   -1.1397   -6.0629 S.3       12 UNK        -0.2240 
     71 C71        32.3751   -1.8302   -5.9887 C.3       12 UNK         0.0194 
     72 H72        26.6987   -3.8611    2.9916 H         1 UNK         0.0906 
     73 H73        27.2127   -2.2806    3.5842 H         1 UNK         0.0906 
     74 H74        25.5351   -2.5381    3.0971 H         1 UNK         0.0906 
     75 H75        27.3343   -4.2380    0.8832 H         1 UNK         0.3140 
     76 H76        28.2468   -2.1098   -0.8605 H         1 UNK         0.1085 
     77 H77        28.1670   -5.1447   -1.2552 H         1 UNK         0.0836 
     78 H78        28.9228   -4.0230   -2.3518 H         1 UNK         0.0836 
     79 H79        31.4962   -4.9453   -2.1753 H         1 UNK         0.0731 
     80 H80        32.4691   -4.0468   -1.0362 H         1 UNK         0.0731 
     81 H81        32.3339   -3.7787   -4.1049 H         1 UNK         0.1312 
     82 H82        31.1826    0.2962   -4.7580 H         1 UNK         0.1406 
     83 H83        30.5388   -1.5210   -0.9313 H         1 UNK         0.1631 
     84 H84        30.3286    1.6335   -2.9434 H         1 UNK         0.0717 
     85 H85        30.5982    1.0627   -1.3160 H         1 UNK         0.0717 
     86 H86        26.5489    1.6932   -3.0487 H         1 UNK         0.0934 
     87 H87        27.9909    2.6630   -3.1236 H         1 UNK         0.0934 
     88 H88        28.8820    1.4311   -5.0063 H         1 UNK         0.0739 
     89 H89        27.0059   -0.6747   -4.3364 H         1 UNK         0.3093 
     90 H90        27.6466   -2.6051   -7.2700 H         1 UNK         0.0818 
     91 H91        28.6343   -2.9629   -4.3914 H         1 UNK         0.0819 
     92 H92        28.2543   -4.2933   -5.4873 H         1 UNK         0.0819 
     93 H93        29.5693   -3.1907   -5.8601 H         1 UNK         0.0819 
     94 H94        26.1031   -3.0759   -4.8922 H         1 UNK         0.3041 
     95 H95        23.1327   -1.4408   -5.9707 H         1 UNK         0.0784 
     96 H96        23.0825   -3.5573   -7.3038 H         1 UNK         0.0793 
     97 H97        23.7318   -4.4455   -5.9320 H         1 UNK         0.0793 
     98 H98        22.1363   -3.6984   -5.8324 H         1 UNK         0.0793 
     99 H99        23.4758   -3.1451   -3.7887 H         1 UNK         0.3024 
    100 H100       23.9461   -0.6780   -1.4576 H         1 UNK         0.1171 
    101 H101       22.2641   -2.5006   -1.8943 H         1 UNK         0.0786 
    102 H102       23.1670   -2.7615   -0.4162 H         1 UNK         0.0786 
    103 H103       23.5565   -3.7013   -1.8475 H         1 UNK         0.0786 
    104 H104       25.8490   -1.3883   -0.5258 H         1 UNK         0.2977 
    105 H105       25.3425    0.9759   -5.0964 H         1 UNK         0.3127 
    106 H106       24.5854    3.4716   -6.0628 H         1 UNK         0.0770 
    107 H107       23.1683    0.7919   -6.4971 H         1 UNK         0.0814 
    108 H108       22.4215    2.3795   -6.5663 H         1 UNK         0.0814 
    109 H109       23.0469    1.7769   -5.0386 H         1 UNK         0.0814 
    110 H110       25.6215    0.6439   -7.9544 H         1 UNK         0.2983 
    111 H111       25.0685    1.8251  -10.5490 H         1 UNK         0.0947 
    112 H112       26.2668   -0.2133  -11.3658 H         1 UNK         0.0806 
    113 H113       25.0298   -0.6204  -10.1907 H         1 UNK         0.0806 
    114 H114       26.7214   -0.6071   -9.7087 H         1 UNK         0.0806 
    115 H115       26.6043    3.5579   -8.8572 H         1 UNK         0.3000 
    116 H116       28.2774    4.9993   -8.8088 H         1 UNK         0.0850 
    117 H117       29.2248    5.7819  -10.9564 H         1 UNK         0.0810 
    118 H118       27.5036    5.4864  -11.1360 H         1 UNK         0.0810 
    119 H119       28.6706    4.3291  -11.7748 H         1 UNK         0.0810 
    120 H120       28.9558    2.7417   -7.6295 H         1 UNK         0.3040 
    121 H121       30.5689    1.4408   -6.8135 H         1 UNK         0.0766 
    122 H122       31.7135    3.5865   -6.3419 H         1 UNK         0.0812 
    123 H123       32.5186    3.5297   -7.9095 H         1 UNK         0.0812 
    124 H124       32.8779    2.3174   -6.6903 H         1 UNK         0.0812 
    125 H125       29.7221   -0.0468   -8.4685 H         1 UNK         0.3205 
    126 H126       31.2511   -0.5609  -10.9101 H         1 UNK         0.0754 
    127 H127       29.5304   -2.3534  -11.2292 H         1 UNK         0.0769 
    128 H128       28.8076   -0.7872  -10.9266 H         1 UNK         0.0769 
    129 H129       28.8629   -1.9952   -9.6398 H         1 UNK         0.0769 
    130 H130       33.1324   -0.7217   -9.1352 H         1 UNK         0.2981 
    131 H131       33.5232   -3.4355   -8.0838 H         1 UNK         0.0541 
    132 H132       34.0508   -2.1974  -11.2292 H         1 UNK         0.3459 
    133 H133       35.2909   -3.3446  -11.6712 H         1 UNK         0.3459 
    134 H134       35.6482   -2.5161   -7.1774 H         1 UNK         0.0612 
    135 H135       35.4037   -1.0283   -8.0414 H         1 UNK         0.0612 
    136 H136       32.3713   -2.8709   -6.3099 H         1 UNK         0.0624 
    137 H137       31.7192   -1.2846   -6.6664 H         1 UNK         0.0624 
@<TRIPOS>BOND
     1    1    2 1    
     2    1   72 1    
     3    1   73 1    
     4    1   74 1    
     5    2    3 2    
     6    2    4 am   BACKBONE|DICT|INTERRES
     7    4    5 1    
     8    4   75 1    
     9    5    6 1    
    10    5   35 1    
    11    5   76 1    
    12    6    7 1    
    13    6   77 1    
    14    6   78 1    
    15    7    8 1    
    16    8    9 1    
    17    8   79 1    
    18    8   80 1    
    19    9   10 ar   
    20    9   14 ar   
    21   10   11 ar   
    22   10   81 1    
    23   11   12 ar   
    24   11   71 1    
    25   12   13 ar   
    26   12   82 1    
    27   13   14 ar   
    28   13   15 1    
    29   14   83 1    
    30   15   16 1    
    31   15   84 1    
    32   15   85 1    
    33   16   17 1    
    34   17   18 1    
    35   17   86 1    
    36   17   87 1    
    37   18   19 1    
    38   18   37 1    
    39   18   88 1    
    40   19   20 am   BACKBONE|DICT|INTERRES
    41   19   89 1    
    42   20   21 2    
    43   20   22 1    
    44   22   23 1    
    45   22   24 1    
    46   22   90 1    
    47   23   91 1    
    48   23   92 1    
    49   23   93 1    
    50   24   25 am   BACKBONE|DICT|INTERRES
    51   24   94 1    
    52   25   26 2    
    53   25   27 1    
    54   27   28 1    
    55   27   29 1    
    56   27   95 1    
    57   28   96 1    
    58   28   97 1    
    59   28   98 1    
    60   29   30 am   BACKBONE|DICT|INTERRES
    61   29   99 1    
    62   30   31 2    
    63   30   32 1    
    64   32   33 1    
    65   32   34 1    
    66   32  100 1    
    67   33  101 1    
    68   33  102 1    
    69   33  103 1    
    70   34   35 am   BACKBONE|DICT|INTERRES
    71   34  104 1    
    72   35   36 2    
    73   37   38 2    
    74   37   39 am   BACKBONE|DICT|INTERRES
    75   39   40 1    
    76   39  105 1    
    77   40   41 1    
    78   40   42 1    
    79   40  106 1    
    80   41  107 1    
    81   41  108 1    
    82   41  109 1    
    83   42   43 2    
    84   42   44 am   BACKBONE|DICT|INTERRES
    85   44   45 1    
    86   44  110 1    
    87   45   46 1    
    88   45   47 1    
    89   45  111 1    
    90   46  112 1    
    91   46  113 1    
    92   46  114 1    
    93   47   48 2    
    94   47   49 am   BACKBONE|DICT|INTERRES
    95   49   50 1    
    96   49  115 1    
    97   50   51 1    
    98   50   52 1    
    99   50  116 1    
   100   51  117 1    
   101   51  118 1    
   102   51  119 1    
   103   52   53 2    
   104   52   54 am   BACKBONE|DICT|INTERRES
   105   54   55 1    
   106   54  120 1    
   107   55   56 1    
   108   55   57 1    
   109   55  121 1    
   110   56  122 1    
   111   56  123 1    
   112   56  124 1    
   113   57   58 2    
   114   57   59 am   BACKBONE|DICT|INTERRES
   115   59   60 1    
   116   59  125 1    
   117   60   61 1    
   118   60   62 1    
   119   60  126 1    
   120   61  127 1    
   121   61  128 1    
   122   61  129 1    
   123   62   63 2    
   124   62   64 am   BACKBONE|DICT|INTERRES
   125   64   65 1    
   126   64  130 1    
   127   65   66 1    
   128   65   69 1    
   129   65  131 1    
   130   66   67 am   BACKBONE|DICT|INTERRES
   131   66   68 2    
   132   67  132 1    
   133   67  133 1    
   134   69   70 1    
   135   69  134 1    
   136   69  135 1    
   137   70   71 1    
   138   71  136 1    
   139   71  137 1    
@<TRIPOS>SUBSTRUCTURE
     1 UNK         1 GROUP             0       ****    0 ROOT    
