@<TRIPOS>MOLECULE
3R137
137   139    1
SMALL
USER_CHARGES


@<TRIPOS>ATOM
      1 CA         26.4840   -1.7371    3.7744 C.3       0 UNK        -0.2020 
      2 C          26.5880   -1.4603    2.2818 C.2       0 UNK         0.4855 
      3 O          26.1052   -0.4273    1.8157 O.2       0 UNK        -0.5197 
      4 N          27.2222   -2.3693    1.5313 N.am      1 UNK        -0.4892 
      5 CA         27.3785   -2.2916    0.0736 C.3       1 UNK         0.0835 
      6 C6         28.4851   -3.2472   -0.4401 C.3       12 UNK        -0.0855 
      7 S7         30.1116   -2.8846    0.3081 S.3       12 UNK        -0.2931 
      8 C8         31.1291   -4.2544   -0.3293 C.3       12 UNK         0.0378 
      9 C9         31.4302   -4.0848   -1.8108 C.ar      12 UNK        -0.0802 
     10 C10        32.4744   -3.2509   -2.2261 C.ar      12 UNK        -0.0944 
     11 C11        32.7344   -3.0678   -3.5877 C.ar      12 UNK        -0.0787 
     12 C12        31.9477   -3.7288   -4.5337 C.ar      12 UNK        -0.0862 
     13 C13        30.8893   -4.5473   -4.1300 C.ar      12 UNK        -0.0733 
     14 C14        30.6493   -4.7413   -2.7670 C.ar      12 UNK        -0.0832 
     15 C15        29.9554   -5.1476   -5.1714 C.3       12 UNK         0.0240 
     16 S16        28.2755   -4.4351   -5.0824 S.3       12 UNK        -0.2522 
     17 C17        28.5884   -2.6341   -5.0567 C.3       12 UNK        -0.0967 
     18 CA         28.2870   -1.9432   -6.4063 C.3       5 UNK         0.0660 
     19 N          26.8740   -2.0318   -6.7561 N.am      5 UNK        -0.4015 
     20 C          26.3717   -1.8292   -7.9782 C.2       4 UNK         0.4946 
     21 O          27.0511   -1.5595   -8.9675 O.2       4 UNK        -0.5353 
     22 CA         24.8392   -1.8974   -8.0995 C.3       4 UNK         0.0277 
     23 CB         24.3694   -3.3558   -8.2193 C.3       4 UNK        -0.1981 
     24 N          24.1585   -1.2480   -6.9763 N.am      4 UNK        -0.4209 
     25 C          24.3003    0.0463   -6.6550 C.2       3 UNK         0.4942 
     26 O          24.9697    0.8426   -7.3143 O.2       3 UNK        -0.5208 
     27 CA         23.6400    0.5119   -5.3458 C.3       3 UNK         0.0250 
     28 CB         22.1890    0.9491   -5.5983 C.3       3 UNK        -0.1990 
     29 N          23.6795   -0.5028   -4.2825 N.am      3 UNK        -0.4232 
     30 C          24.8110   -0.9743   -3.7414 C.2       2 UNK         0.4993 
     31 O          25.9367   -0.6081   -4.0882 O.2       2 UNK        -0.5286 
     32 CA         24.6875   -2.0713   -2.6816 C.3       2 UNK         0.0209 
     33 CB         24.5751   -3.4546   -3.3521 C.3       2 UNK        -0.1931 
     34 N          25.8831   -2.0053   -1.8444 N.am      2 UNK        -0.4546 
     35 C          26.0375   -2.5671   -0.6419 C.2       1 UNK         0.5154 
     36 O          25.1861   -3.2858   -0.1100 O.2       1 UNK        -0.5181 
     37 C          28.7607   -0.4795   -6.3637 C.2       5 UNK         0.5014 
     38 O          29.7449   -0.1410   -7.0206 O.2       5 UNK        -0.5248 
     39 N          28.0848    0.3400   -5.5487 N.am      6 UNK        -0.4434 
     40 CA         28.5603    1.6553   -5.1257 C.3       6 UNK         0.0363 
     41 CB         27.9614    1.9803   -3.7476 C.3       6 UNK        -0.1936 
     42 C          28.2554    2.7906   -6.1106 C.2       6 UNK         0.5081 
     43 O          29.0293    3.7474   -6.1519 O.2       6 UNK        -0.5248 
     44 N          27.1460    2.7011   -6.8562 N.am      7 UNK        -0.4718 
     45 CA         26.6991    3.7585   -7.7662 C.3       7 UNK         0.0273 
     46 CB         25.2439    4.1501   -7.4529 C.3       7 UNK        -0.1935 
     47 C          26.8569    3.3449   -9.2323 C.2       7 UNK         0.5018 
     48 O          27.4021    4.1293  -10.0093 O.2       7 UNK        -0.5186 
     49 N          26.3753    2.1458   -9.5963 N.am      8 UNK        -0.4240 
     50 CA         26.3934    1.6691  -10.9840 C.3       8 UNK         0.0235 
     51 CB         25.3537    0.5577  -11.2000 C.3       8 UNK        -0.2000 
     52 C          27.8004    1.2417  -11.4311 C.2       8 UNK         0.4941 
     53 O          28.3326    1.8264  -12.3757 O.2       8 UNK        -0.5273 
     54 N          28.3870    0.2483  -10.7468 N.am      9 UNK        -0.4262 
     55 CA         29.7531   -0.2185  -11.0087 C.3       9 UNK         0.0264 
     56 CB         29.9402   -1.6287  -10.4259 C.3       9 UNK        -0.1955 
     57 C          30.8287    0.7294  -10.4531 C.2       9 UNK         0.5031 
     58 O          31.9389    0.7509  -10.9867 O.2       9 UNK        -0.5390 
     59 N          30.4973    1.4580   -9.3759 N.am      10 UNK        -0.4204 
     60 CA         31.3612    2.3649   -8.6068 C.3       10 UNK         0.0237 
     61 CB         31.6375    3.6514   -9.4120 C.3       10 UNK        -0.1985 
     62 C          32.6462    1.6839   -8.0902 C.2       10 UNK         0.4970 
     63 O          33.7140    2.2993   -8.0988 O.2       10 UNK        -0.4914 
     64 N          32.5175    0.4103   -7.6906 N.am      11 UNK        -0.4285 
     65 CA         33.6118   -0.5132   -7.3412 C.3       11 UNK         0.1007 
     66 C          34.6350   -0.7929   -8.4889 C.2       11 UNK         0.5703 
     67 N          34.3374   -0.4871   -9.7472 N.am      11 UNK        -0.7361 
     68 O          35.7075   -1.3419   -8.2466 O.2       11 UNK        -0.4986 
     69 C69        34.2864   -0.1543   -5.9831 C.3       12 UNK        -0.0947 
     70 S70        33.1865   -0.5276   -4.5768 S.3       12 UNK        -0.2240 
     71 C71        33.8477   -2.1440   -4.0526 C.3       12 UNK         0.0194 
     72 H72        26.9588   -0.9349    4.3389 H         1 UNK         0.0906 
     73 H73        25.4375   -1.7916    4.0734 H         1 UNK         0.0906 
     74 H74        26.9647   -2.6757    4.0500 H         1 UNK         0.0906 
     75 H75        27.5931   -3.2033    1.9634 H         1 UNK         0.3140 
     76 H76        27.6760   -1.2687   -0.1702 H         1 UNK         0.1085 
     77 H77        28.5856   -3.1617   -1.5240 H         1 UNK         0.0836 
     78 H78        28.2230   -4.2870   -0.2342 H         1 UNK         0.0836 
     79 H79        32.0649   -4.2883    0.2307 H         1 UNK         0.0731 
     80 H80        30.6279   -5.2052   -0.1407 H         1 UNK         0.0731 
     81 H81        33.0715   -2.7312   -1.4891 H         1 UNK         0.1312 
     82 H82        32.1326   -3.5653   -5.5868 H         1 UNK         0.1406 
     83 H83        29.8235   -5.3663   -2.4545 H         1 UNK         0.1631 
     84 H84        29.8936   -6.2267   -5.0249 H         1 UNK         0.0717 
     85 H85        30.3468   -4.9952   -6.1785 H         1 UNK         0.0717 
     86 H86        27.9747   -2.2142   -4.2593 H         1 UNK         0.0934 
     87 H87        29.6131   -2.4250   -4.7546 H         1 UNK         0.0934 
     88 H88        28.8636   -2.4511   -7.1825 H         1 UNK         0.0739 
     89 H89        26.2378   -2.2044   -5.9931 H         1 UNK         0.3093 
     90 H90        24.5462   -1.3705   -9.0079 H         1 UNK         0.0818 
     91 H91        23.2937   -3.4140   -8.3865 H         1 UNK         0.0819 
     92 H92        24.8531   -3.8513   -9.0624 H         1 UNK         0.0819 
     93 H93        24.6028   -3.9343   -7.3244 H         1 UNK         0.0819 
     94 H94        23.5792   -1.8291   -6.3887 H         1 UNK         0.3041 
     95 H95        24.2003    1.3814   -4.9945 H         1 UNK         0.0784 
     96 H96        22.1432    1.7170   -6.3722 H         1 UNK         0.0793 
     97 H97        21.5650    0.1171   -5.9272 H         1 UNK         0.0793 
     98 H98        21.7399    1.3718   -4.6994 H         1 UNK         0.0793 
     99 H99        22.7908   -0.8533   -3.9535 H         1 UNK         0.3024 
    100 H100       23.8064   -1.8771   -2.0658 H         1 UNK         0.1171 
    101 H101       23.7045   -3.5070   -4.0068 H         1 UNK         0.0786 
    102 H102       24.4664   -4.2489   -2.6137 H         1 UNK         0.0786 
    103 H103       25.4544   -3.6823   -3.9557 H         1 UNK         0.0786 
    104 H104       26.6057   -1.4077   -2.2279 H         1 UNK         0.2977 
    105 H105       27.2676   -0.0209   -5.0543 H         1 UNK         0.3127 
    106 H106       29.6462    1.6068   -5.0132 H         1 UNK         0.0770 
    107 H107       26.8725    2.0359   -3.7848 H         1 UNK         0.0814 
    108 H108       28.3254    2.9402   -3.3786 H         1 UNK         0.0814 
    109 H109       28.2326    1.2256   -3.0093 H         1 UNK         0.0814 
    110 H110       26.5542    1.8783   -6.7908 H         1 UNK         0.2983 
    111 H111       27.3016    4.6590   -7.6267 H         1 UNK         0.0947 
    112 H112       24.9283    4.9889   -8.0746 H         1 UNK         0.0806 
    113 H113       25.1333    4.4592   -6.4135 H         1 UNK         0.0806 
    114 H114       24.5435    3.3360   -7.6351 H         1 UNK         0.0806 
    115 H115       25.9203    1.5652   -8.8973 H         1 UNK         0.3000 
    116 H116       26.0917    2.5049  -11.6200 H         1 UNK         0.0850 
    117 H117       25.2373    0.3457  -12.2635 H         1 UNK         0.0810 
    118 H118       24.3741    0.8450  -10.8176 H         1 UNK         0.0810 
    119 H119       25.6425   -0.3755  -10.7239 H         1 UNK         0.0810 
    120 H120       27.8642   -0.2475  -10.0258 H         1 UNK         0.3040 
    121 H121       29.8963   -0.2811  -12.0897 H         1 UNK         0.0766 
    122 H122       30.9345   -2.0164  -10.6517 H         1 UNK         0.0812 
    123 H123       29.2155   -2.3291  -10.8414 H         1 UNK         0.0812 
    124 H124       29.8266   -1.6355   -9.3419 H         1 UNK         0.0812 
    125 H125       29.5863    1.2856   -8.9738 H         1 UNK         0.3205 
    126 H126       30.7990    2.6444   -7.7174 H         1 UNK         0.0754 
    127 H127       32.1784    4.3828   -8.8103 H         1 UNK         0.0769 
    128 H128       30.7078    4.1219   -9.7333 H         1 UNK         0.0769 
    129 H129       32.2367    3.4500  -10.3006 H         1 UNK         0.0769 
    130 H130       31.5783    0.0250   -7.6447 H         1 UNK         0.2981 
    131 H131       33.1251   -1.4804   -7.2116 H         1 UNK         0.0541 
    132 H132       35.0094   -0.6929  -10.4685 H         1 UNK         0.3459 
    133 H133       33.4651   -0.0307   -9.9937 H         1 UNK         0.3459 
    134 H134       34.5543    0.9022   -5.9482 H         1 UNK         0.0612 
    135 H135       35.2224   -0.6947   -5.8356 H         1 UNK         0.0612 
    136 H136       34.3762   -2.6234   -4.8780 H         1 UNK         0.0624 
    137 H137       34.5840   -1.9914   -3.2621 H         1 UNK         0.0624 
@<TRIPOS>BOND
     1    1    2 1    
     2    1   72 1    
     3    1   73 1    
     4    1   74 1    
     5    2    3 2    
     6    2    4 am   BACKBONE|DICT|INTERRES
     7    4    5 1    
     8    4   75 1    
     9    5    6 1    
    10    5   35 1    
    11    5   76 1    
    12    6    7 1    
    13    6   77 1    
    14    6   78 1    
    15    7    8 1    
    16    8    9 1    
    17    8   79 1    
    18    8   80 1    
    19    9   10 ar   
    20    9   14 ar   
    21   10   11 ar   
    22   10   81 1    
    23   11   12 ar   
    24   11   71 1    
    25   12   13 ar   
    26   12   82 1    
    27   13   14 ar   
    28   13   15 1    
    29   14   83 1    
    30   15   16 1    
    31   15   84 1    
    32   15   85 1    
    33   16   17 1    
    34   17   18 1    
    35   17   86 1    
    36   17   87 1    
    37   18   19 1    
    38   18   37 1    
    39   18   88 1    
    40   19   20 am   BACKBONE|DICT|INTERRES
    41   19   89 1    
    42   20   21 2    
    43   20   22 1    
    44   22   23 1    
    45   22   24 1    
    46   22   90 1    
    47   23   91 1    
    48   23   92 1    
    49   23   93 1    
    50   24   25 am   BACKBONE|DICT|INTERRES
    51   24   94 1    
    52   25   26 2    
    53   25   27 1    
    54   27   28 1    
    55   27   29 1    
    56   27   95 1    
    57   28   96 1    
    58   28   97 1    
    59   28   98 1    
    60   29   30 am   BACKBONE|DICT|INTERRES
    61   29   99 1    
    62   30   31 2    
    63   30   32 1    
    64   32   33 1    
    65   32   34 1    
    66   32  100 1    
    67   33  101 1    
    68   33  102 1    
    69   33  103 1    
    70   34   35 am   BACKBONE|DICT|INTERRES
    71   34  104 1    
    72   35   36 2    
    73   37   38 2    
    74   37   39 am   BACKBONE|DICT|INTERRES
    75   39   40 1    
    76   39  105 1    
    77   40   41 1    
    78   40   42 1    
    79   40  106 1    
    80   41  107 1    
    81   41  108 1    
    82   41  109 1    
    83   42   43 2    
    84   42   44 am   BACKBONE|DICT|INTERRES
    85   44   45 1    
    86   44  110 1    
    87   45   46 1    
    88   45   47 1    
    89   45  111 1    
    90   46  112 1    
    91   46  113 1    
    92   46  114 1    
    93   47   48 2    
    94   47   49 am   BACKBONE|DICT|INTERRES
    95   49   50 1    
    96   49  115 1    
    97   50   51 1    
    98   50   52 1    
    99   50  116 1    
   100   51  117 1    
   101   51  118 1    
   102   51  119 1    
   103   52   53 2    
   104   52   54 am   BACKBONE|DICT|INTERRES
   105   54   55 1    
   106   54  120 1    
   107   55   56 1    
   108   55   57 1    
   109   55  121 1    
   110   56  122 1    
   111   56  123 1    
   112   56  124 1    
   113   57   58 2    
   114   57   59 am   BACKBONE|DICT|INTERRES
   115   59   60 1    
   116   59  125 1    
   117   60   61 1    
   118   60   62 1    
   119   60  126 1    
   120   61  127 1    
   121   61  128 1    
   122   61  129 1    
   123   62   63 2    
   124   62   64 am   BACKBONE|DICT|INTERRES
   125   64   65 1    
   126   64  130 1    
   127   65   66 1    
   128   65   69 1    
   129   65  131 1    
   130   66   67 am   BACKBONE|DICT|INTERRES
   131   66   68 2    
   132   67  132 1    
   133   67  133 1    
   134   69   70 1    
   135   69  134 1    
   136   69  135 1    
   137   70   71 1    
   138   71  136 1    
   139   71  137 1    
@<TRIPOS>SUBSTRUCTURE
     1 UNK         1 GROUP             0       ****    0 ROOT    
