@<TRIPOS>MOLECULE
3R137
137   139    1
SMALL
USER_CHARGES


@<TRIPOS>ATOM
      1 CA         29.9671    1.3840   -2.5848 C.3       0 UNK        -0.2020 
      2 C          29.3668   -0.0132   -2.5737 C.2       0 UNK         0.4855 
      3 O          28.7229   -0.4068   -3.5439 O.2       0 UNK        -0.5197 
      4 N          29.5665   -0.7645   -1.4830 N.am      1 UNK        -0.4892 
      5 CA         29.0402   -2.1186   -1.2896 C.3       1 UNK         0.0835 
      6 C6         29.9554   -2.9433   -0.3445 C.3       12 UNK        -0.0855 
      7 S7         29.6224   -4.7386   -0.4342 S.3       12 UNK        -0.2931 
      8 C8         30.9628   -5.3272   -1.5196 C.3       12 UNK         0.0378 
      9 C9         30.8776   -4.7110   -2.9083 C.ar      12 UNK        -0.0802 
     10 C10        31.8159   -3.7578   -3.3150 C.ar      12 UNK        -0.0944 
     11 C11        31.7290   -3.1668   -4.5788 C.ar      12 UNK        -0.0787 
     12 C12        30.6825   -3.5323   -5.4342 C.ar      12 UNK        -0.0862 
     13 C13        29.7457   -4.4963   -5.0447 C.ar      12 UNK        -0.0733 
     14 C14        29.8533   -5.0864   -3.7824 C.ar      12 UNK        -0.0832 
     15 C15        28.6221   -4.9117   -5.9869 C.3       12 UNK         0.0240 
     16 S16        27.0009   -4.2832   -5.4413 S.3       12 UNK        -0.2522 
     17 C17        27.2203   -2.4900   -5.6684 C.3       12 UNK        -0.0967 
     18 CA         26.2070   -1.8762   -6.6617 C.3       5 UNK         0.0660 
     19 N          24.8309   -1.9502   -6.1692 N.am      5 UNK        -0.4015 
     20 C          23.7379   -1.9573   -6.9431 C.2       4 UNK         0.4946 
     21 O          23.7686   -1.9585   -8.1742 O.2       4 UNK        -0.5353 
     22 CA         22.3738   -1.9668   -6.2274 C.3       4 UNK         0.0277 
     23 CB         21.8855   -3.4107   -6.0261 C.3       4 UNK        -0.1981 
     24 N          22.3964   -1.2790   -4.9334 N.am      4 UNK        -0.4209 
     25 C          22.4986    0.0494   -4.7815 C.2       3 UNK         0.4942 
     26 O          22.5058    0.8473   -5.7191 O.2       3 UNK        -0.5208 
     27 CA         22.6527    0.5776   -3.3414 C.3       3 UNK         0.0250 
     28 CB         21.2767    0.9103   -2.7425 C.3       3 UNK        -0.1990 
     29 N          23.3778   -0.3211   -2.4303 N.am      3 UNK        -0.4232 
     30 C          24.6239   -0.7716   -2.6298 C.2       2 UNK         0.4993 
     31 O          25.2791   -0.5304   -3.6451 O.2       2 UNK        -0.5286 
     32 CA         25.2184   -1.6857   -1.5557 C.3       2 UNK         0.0209 
     33 CB         24.6097   -3.0981   -1.6423 C.3       2 UNK        -0.1931 
     34 N          26.6631   -1.7659   -1.7583 N.am      2 UNK        -0.4546 
     35 C          27.5700   -2.0508   -0.8202 C.2       1 UNK         0.5154 
     36 O          27.2843   -2.2221    0.3672 O.2       1 UNK        -0.5181 
     37 C          26.5954   -0.4193   -6.9620 C.2       5 UNK         0.5014 
     38 O          27.2314   -0.1739   -7.9861 O.2       5 UNK        -0.5248 
     39 N          26.2122    0.5060   -6.0662 N.am      6 UNK        -0.4434 
     40 CA         26.5923    1.9244   -6.0106 C.3       6 UNK         0.0363 
     41 CB         25.7583    2.6239   -4.9262 C.3       6 UNK        -0.1936 
     42 C          26.5024    2.7063   -7.3324 C.2       6 UNK         0.5081 
     43 O          27.3006    3.6191   -7.5444 O.2       6 UNK        -0.5248 
     44 N          25.5656    2.3194   -8.2075 N.am      7 UNK        -0.4718 
     45 CA         25.3908    2.8629   -9.5566 C.3       7 UNK         0.0273 
     46 CB         24.1045    2.2781  -10.1623 C.3       7 UNK        -0.1935 
     47 C          26.5854    2.6251  -10.5042 C.2       7 UNK         0.5018 
     48 O          26.7293    3.3765  -11.4698 O.2       7 UNK        -0.5186 
     49 N          27.4106    1.6040  -10.2320 N.am      8 UNK        -0.4240 
     50 CA         28.5818    1.2376  -11.0326 C.3       8 UNK         0.0235 
     51 CB         28.1741    0.1895  -12.0865 C.3       8 UNK        -0.2000 
     52 C          29.7512    0.7622  -10.1516 C.2       8 UNK         0.4941 
     53 O          30.5960   -0.0035  -10.6223 O.2       8 UNK        -0.5273 
     54 N          29.7991    1.2107   -8.8891 N.am      9 UNK        -0.4262 
     55 CA         30.7909    0.8035   -7.8915 C.3       9 UNK         0.0264 
     56 CB         30.2358    1.0536   -6.4781 C.3       9 UNK        -0.1955 
     57 C          32.1525    1.4844   -8.1094 C.2       9 UNK         0.5031 
     58 O          32.5828    2.2863   -7.2784 O.2       9 UNK        -0.5390 
     59 N          32.8329    1.1242   -9.2058 N.am      10 UNK        -0.4204 
     60 CA         34.2108    1.5320   -9.5166 C.3       10 UNK         0.0237 
     61 CB         34.5982    0.9992  -10.9052 C.3       10 UNK        -0.1985 
     62 C          35.2327    1.0769   -8.4546 C.2       10 UNK         0.4970 
     63 O          36.2431    1.7502   -8.2509 O.2       10 UNK        -0.4914 
     64 N          34.9223   -0.0360   -7.7802 N.am      11 UNK        -0.4285 
     65 CA         35.5837   -0.5381   -6.5703 C.3       11 UNK         0.1007 
     66 C          35.3411    0.3041   -5.2812 C.2       11 UNK         0.5703 
     67 N          34.4551    1.2936   -5.2673 N.am      11 UNK        -0.7361 
     68 O          35.9855    0.0568   -4.2648 O.2       11 UNK        -0.4986 
     69 C69        35.2777   -2.0470   -6.3461 C.3       12 UNK        -0.0947 
     70 S70        33.5313   -2.5315   -6.6021 S.3       12 UNK        -0.2240 
     71 C71        32.7601   -2.1259   -5.0015 C.3       12 UNK         0.0194 
     72 H72        29.2100    2.1138   -2.8708 H         1 UNK         0.0906 
     73 H73        30.3594    1.6675   -1.6084 H         1 UNK         0.0906 
     74 H74        30.7805    1.4363   -3.3075 H         1 UNK         0.0906 
     75 H75        30.0738   -0.3767   -0.7000 H         1 UNK         0.3140 
     76 H76        29.0425   -2.6198   -2.2609 H         1 UNK         0.1085 
     77 H77        29.8551   -2.6145    0.6915 H         1 UNK         0.0836 
     78 H78        31.0026   -2.7759   -0.6009 H         1 UNK         0.0836 
     79 H79        31.9258   -5.1120   -1.0535 H         1 UNK         0.0731 
     80 H80        30.9003   -6.4132   -1.6030 H         1 UNK         0.0731 
     81 H81        32.6117   -3.4700   -2.6417 H         1 UNK         0.1312 
     82 H82        30.6065   -3.0713   -6.4094 H         1 UNK         0.1406 
     83 H83        29.1255   -5.8239   -3.4713 H         1 UNK         0.1631 
     84 H84        28.5788   -6.0007   -6.0352 H         1 UNK         0.0717 
     85 H85        28.8185   -4.5694   -7.0043 H         1 UNK         0.0717 
     86 H86        27.1323   -2.0240   -4.6887 H         1 UNK         0.0934 
     87 H87        28.2403   -2.2875   -5.9983 H         1 UNK         0.0934 
     88 H88        26.2753   -2.4314   -7.6001 H         1 UNK         0.0739 
     89 H89        24.7204   -1.8826   -5.1663 H         1 UNK         0.3093 
     90 H90        21.6597   -1.4519   -6.8741 H         1 UNK         0.0818 
     91 H91        20.8873   -3.4355   -5.5885 H         1 UNK         0.0819 
     92 H92        21.8325   -3.9399   -6.9787 H         1 UNK         0.0819 
     93 H93        22.5531   -3.9779   -5.3759 H         1 UNK         0.0819 
     94 H94        22.3755   -1.8556   -4.1050 H         1 UNK         0.3041 
     95 H95        23.2276    1.5038   -3.4014 H         1 UNK         0.0784 
     96 H96        20.7254    1.5959   -3.3880 H         1 UNK         0.0793 
     97 H97        20.6634    0.0171   -2.6168 H         1 UNK         0.0793 
     98 H98        21.3724    1.3930   -1.7697 H         1 UNK         0.0793 
     99 H99        22.8978   -0.5795   -1.5796 H         1 UNK         0.3024 
    100 H100       25.0113   -1.2467   -0.5770 H         1 UNK         0.1171 
    101 H101       23.5289   -3.0756   -1.4984 H         1 UNK         0.0786 
    102 H102       25.0205   -3.7540   -0.8744 H         1 UNK         0.0786 
    103 H103       24.8036   -3.5603   -2.6115 H         1 UNK         0.0786 
    104 H104       26.9816   -1.4838   -2.6811 H         1 UNK         0.2977 
    105 H105       25.7467    0.1602   -5.2277 H         1 UNK         0.3127 
    106 H106       27.6335    1.9543   -5.6905 H         1 UNK         0.0770 
    107 H107       24.6932    2.5905   -5.1576 H         1 UNK         0.0814 
    108 H108       26.0396    3.6736   -4.8306 H         1 UNK         0.0814 
    109 H109       25.9068    2.1610   -3.9503 H         1 UNK         0.0814 
    110 H110       24.9659    1.5504   -7.9433 H         1 UNK         0.2983 
    111 H111       25.2669    3.9440   -9.4631 H         1 UNK         0.0947 
    112 H112       23.9227    2.6815  -11.1595 H         1 UNK         0.0806 
    113 H113       23.2327    2.5194   -9.5536 H         1 UNK         0.0806 
    114 H114       24.1605    1.1925  -10.2547 H         1 UNK         0.0806 
    115 H115       27.2298    1.0191   -9.4158 H         1 UNK         0.3000 
    116 H116       28.9533    2.1208  -11.5565 H         1 UNK         0.0850 
    117 H117       29.0123   -0.0662  -12.7359 H         1 UNK         0.0810 
    118 H118       27.3743    0.5611  -12.7273 H         1 UNK         0.0810 
    119 H119       27.8279   -0.7324  -11.6178 H         1 UNK         0.0810 
    120 H120       29.0915    1.8639   -8.5838 H         1 UNK         0.3040 
    121 H121       30.9540   -0.2728   -7.9837 H         1 UNK         0.0766 
    122 H122       30.9737    0.8007   -5.7165 H         1 UNK         0.0812 
    123 H123       29.3617    0.4347   -6.2814 H         1 UNK         0.0812 
    124 H124       29.9609    2.0983   -6.3296 H         1 UNK         0.0812 
    125 H125       32.3598    0.5115   -9.8654 H         1 UNK         0.3205 
    126 H126       34.2342    2.6233   -9.5459 H         1 UNK         0.0754 
    127 H127       35.6093    1.3085  -11.1741 H         1 UNK         0.0769 
    128 H128       33.9284    1.3795  -11.6769 H         1 UNK         0.0769 
    129 H129       34.5690   -0.0906  -10.9425 H         1 UNK         0.0769 
    130 H130       34.0777   -0.5267   -8.0328 H         1 UNK         0.2981 
    131 H131       36.6576   -0.4597   -6.7499 H         1 UNK         0.0541 
    132 H132       33.9127    1.5445   -6.0876 H         1 UNK         0.3459 
    133 H133       34.3352    1.8211   -4.4181 H         1 UNK         0.3459 
    134 H134       35.6165   -2.3916   -5.3672 H         1 UNK         0.0612 
    135 H135       35.8616   -2.6254   -7.0635 H         1 UNK         0.0612 
    136 H136       33.5341   -2.0298   -4.2389 H         1 UNK         0.0624 
    137 H137       32.2779   -1.1509   -5.0752 H         1 UNK         0.0624 
@<TRIPOS>BOND
     1    1    2 1    
     2    1   72 1    
     3    1   73 1    
     4    1   74 1    
     5    2    3 2    
     6    2    4 am   BACKBONE|DICT|INTERRES
     7    4    5 1    
     8    4   75 1    
     9    5    6 1    
    10    5   35 1    
    11    5   76 1    
    12    6    7 1    
    13    6   77 1    
    14    6   78 1    
    15    7    8 1    
    16    8    9 1    
    17    8   79 1    
    18    8   80 1    
    19    9   10 ar   
    20    9   14 ar   
    21   10   11 ar   
    22   10   81 1    
    23   11   12 ar   
    24   11   71 1    
    25   12   13 ar   
    26   12   82 1    
    27   13   14 ar   
    28   13   15 1    
    29   14   83 1    
    30   15   16 1    
    31   15   84 1    
    32   15   85 1    
    33   16   17 1    
    34   17   18 1    
    35   17   86 1    
    36   17   87 1    
    37   18   19 1    
    38   18   37 1    
    39   18   88 1    
    40   19   20 am   BACKBONE|DICT|INTERRES
    41   19   89 1    
    42   20   21 2    
    43   20   22 1    
    44   22   23 1    
    45   22   24 1    
    46   22   90 1    
    47   23   91 1    
    48   23   92 1    
    49   23   93 1    
    50   24   25 am   BACKBONE|DICT|INTERRES
    51   24   94 1    
    52   25   26 2    
    53   25   27 1    
    54   27   28 1    
    55   27   29 1    
    56   27   95 1    
    57   28   96 1    
    58   28   97 1    
    59   28   98 1    
    60   29   30 am   BACKBONE|DICT|INTERRES
    61   29   99 1    
    62   30   31 2    
    63   30   32 1    
    64   32   33 1    
    65   32   34 1    
    66   32  100 1    
    67   33  101 1    
    68   33  102 1    
    69   33  103 1    
    70   34   35 am   BACKBONE|DICT|INTERRES
    71   34  104 1    
    72   35   36 2    
    73   37   38 2    
    74   37   39 am   BACKBONE|DICT|INTERRES
    75   39   40 1    
    76   39  105 1    
    77   40   41 1    
    78   40   42 1    
    79   40  106 1    
    80   41  107 1    
    81   41  108 1    
    82   41  109 1    
    83   42   43 2    
    84   42   44 am   BACKBONE|DICT|INTERRES
    85   44   45 1    
    86   44  110 1    
    87   45   46 1    
    88   45   47 1    
    89   45  111 1    
    90   46  112 1    
    91   46  113 1    
    92   46  114 1    
    93   47   48 2    
    94   47   49 am   BACKBONE|DICT|INTERRES
    95   49   50 1    
    96   49  115 1    
    97   50   51 1    
    98   50   52 1    
    99   50  116 1    
   100   51  117 1    
   101   51  118 1    
   102   51  119 1    
   103   52   53 2    
   104   52   54 am   BACKBONE|DICT|INTERRES
   105   54   55 1    
   106   54  120 1    
   107   55   56 1    
   108   55   57 1    
   109   55  121 1    
   110   56  122 1    
   111   56  123 1    
   112   56  124 1    
   113   57   58 2    
   114   57   59 am   BACKBONE|DICT|INTERRES
   115   59   60 1    
   116   59  125 1    
   117   60   61 1    
   118   60   62 1    
   119   60  126 1    
   120   61  127 1    
   121   61  128 1    
   122   61  129 1    
   123   62   63 2    
   124   62   64 am   BACKBONE|DICT|INTERRES
   125   64   65 1    
   126   64  130 1    
   127   65   66 1    
   128   65   69 1    
   129   65  131 1    
   130   66   67 am   BACKBONE|DICT|INTERRES
   131   66   68 2    
   132   67  132 1    
   133   67  133 1    
   134   69   70 1    
   135   69  134 1    
   136   69  135 1    
   137   70   71 1    
   138   71  136 1    
   139   71  137 1    
@<TRIPOS>SUBSTRUCTURE
     1 UNK         1 GROUP             0       ****    0 ROOT    
