@<TRIPOS>MOLECULE
3R137
137   139    1
SMALL
USER_CHARGES


@<TRIPOS>ATOM
      1 CA         29.7111    0.7729   -1.4205 C.3       0 UNK        -0.2020 
      2 C          29.1606   -0.4988   -0.7918 C.2       0 UNK         0.4855 
      3 O          28.8030   -0.4888    0.3857 O.2       0 UNK        -0.5197 
      4 N          29.1005   -1.5897   -1.5686 N.am      1 UNK        -0.4892 
      5 CA         28.6224   -2.9204   -1.1648 C.3       1 UNK         0.0835 
      6 C6         29.5404   -3.5908   -0.1015 C.3       12 UNK        -0.0855 
      7 S7         29.8287   -5.3584   -0.4527 S.3       12 UNK        -0.2931 
      8 C8         31.2791   -5.2839   -1.5629 C.3       12 UNK         0.0378 
      9 C9         30.9306   -4.6601   -2.9089 C.ar      12 UNK        -0.0802 
     10 C10        31.3969   -3.3865   -3.2484 C.ar      12 UNK        -0.0944 
     11 C11        31.0236   -2.7935   -4.4589 C.ar      12 UNK        -0.0787 
     12 C12        30.1922   -3.4913   -5.3410 C.ar      12 UNK        -0.0862 
     13 C13        29.7119   -4.7672   -5.0123 C.ar      12 UNK        -0.0733 
     14 C14        30.1009   -5.3455   -3.8002 C.ar      12 UNK        -0.0832 
     15 C15        28.7820   -5.5703   -5.9243 C.3       12 UNK         0.0240 
     16 S16        27.8873   -4.6208   -7.1999 S.3       12 UNK        -0.2522 
     17 C17        26.7367   -3.6033   -6.2098 C.3       12 UNK        -0.0967 
     18 CA         26.3606   -2.3078   -6.9723 C.3       5 UNK         0.0660 
     19 N          25.0244   -1.8073   -6.6387 N.am      5 UNK        -0.4015 
     20 C          24.3355   -0.9567   -7.4148 C.2       4 UNK         0.4946 
     21 O          24.7565   -0.5106   -8.4828 O.2       4 UNK        -0.5353 
     22 CA         22.9553   -0.5103   -6.9057 C.3       4 UNK         0.0277 
     23 CB         21.9056   -1.6095   -7.1367 C.3       4 UNK        -0.1981 
     24 N          22.9697   -0.1264   -5.4929 N.am      4 UNK        -0.4209 
     25 C          23.6105    0.9487   -5.0137 C.2       3 UNK         0.4942 
     26 O          24.2369    1.7445   -5.7153 O.2       3 UNK        -0.5208 
     27 CA         23.5822    1.1479   -3.4863 C.3       3 UNK         0.0250 
     28 CB         22.2826    1.8499   -3.0601 C.3       3 UNK        -0.1990 
     29 N          23.7689   -0.0729   -2.6845 N.am      3 UNK        -0.4232 
     30 C          24.7774   -0.9421   -2.8325 C.2       2 UNK         0.4993 
     31 O          25.5788   -0.9079   -3.7705 O.2       2 UNK        -0.5286 
     32 CA         24.9426   -2.0400   -1.7763 C.3       2 UNK         0.0209 
     33 CB         24.0993   -3.2797   -2.1195 C.3       2 UNK        -0.1931 
     34 N          26.3598   -2.3717   -1.8020 N.am      2 UNK        -0.4546 
     35 C          27.1128   -2.9041   -0.8377 C.2       1 UNK         0.5154 
     36 O          26.6719   -3.3171    0.2365 O.2       1 UNK        -0.5181 
     37 C          27.4317   -1.2109   -6.8304 C.2       5 UNK         0.5014 
     38 O          28.3417   -1.1568   -7.6544 O.2       5 UNK        -0.5248 
     39 N          27.2846   -0.3285   -5.8316 N.am      6 UNK        -0.4434 
     40 CA         28.1100    0.8629   -5.6279 C.3       6 UNK         0.0363 
     41 CB         27.6542    1.6030   -4.3606 C.3       6 UNK        -0.1936 
     42 C          28.0927    1.7956   -6.8470 C.2       6 UNK         0.5081 
     43 O          29.1591    2.1895   -7.3187 O.2       6 UNK        -0.5248 
     44 N          26.8887    2.0812   -7.3624 N.am      7 UNK        -0.4718 
     45 CA         26.6781    2.8654   -8.5796 C.3       7 UNK         0.0273 
     46 CB         25.1822    3.1859   -8.7284 C.3       7 UNK        -0.1935 
     47 C          27.2163    2.1750   -9.8452 C.2       7 UNK         0.5018 
     48 O          27.8065    2.8502  -10.6891 O.2       7 UNK        -0.5186 
     49 N          27.0013    0.8563   -9.9592 N.am      8 UNK        -0.4240 
     50 CA         27.4291    0.0491  -11.1036 C.3       8 UNK         0.0235 
     51 CB         26.7039   -1.3063  -11.0867 C.3       8 UNK        -0.2000 
     52 C          28.9519   -0.1522  -11.1737 C.2       8 UNK         0.4941 
     53 O          29.5377    0.0639  -12.2357 O.2       8 UNK        -0.5273 
     54 N          29.5609   -0.5885  -10.0628 N.am      9 UNK        -0.4262 
     55 CA         30.9827   -0.9302   -9.9869 C.3       9 UNK         0.0264 
     56 CB         31.2172   -1.9106   -8.8262 C.3       9 UNK        -0.1955 
     57 C          31.8922    0.2967   -9.8345 C.2       9 UNK         0.5031 
     58 O          33.0293    0.2456  -10.3059 O.2       9 UNK        -0.5390 
     59 N          31.3926    1.3574   -9.1777 N.am      10 UNK        -0.4204 
     60 CA         32.0999    2.6038   -8.8575 C.3       10 UNK         0.0237 
     61 CB         32.3739    3.4217  -10.1383 C.3       10 UNK        -0.1985 
     62 C          33.3621    2.3606   -8.0052 C.2       10 UNK         0.4970 
     63 O          34.4426    2.8433   -8.3518 O.2       10 UNK        -0.4914 
     64 N          33.1982    1.5934   -6.9171 N.am      11 UNK        -0.4285 
     65 CA         34.2521    1.2586   -5.9449 C.3       11 UNK         0.1007 
     66 C          34.9051    2.5139   -5.2986 C.2       11 UNK         0.5703 
     67 N          36.2116    2.4886   -5.0717 N.am      11 UNK        -0.7361 
     68 O          34.2303    3.4851   -4.9604 O.2       11 UNK        -0.4986 
     69 C69        33.7308    0.3111   -4.8325 C.3       12 UNK        -0.0947 
     70 S70        33.1659   -1.3166   -5.4412 S.3       12 UNK        -0.2240 
     71 C71        31.4727   -1.3758   -4.7800 C.3       12 UNK         0.0194 
     72 H72        28.9806    1.5775   -1.3401 H         1 UNK         0.0906 
     73 H73        30.6170    1.0844   -0.9011 H         1 UNK         0.0906 
     74 H74        29.9547    0.6403   -2.4738 H         1 UNK         0.0906 
     75 H75        29.4127   -1.5267   -2.5268 H         1 UNK         0.3140 
     76 H76        28.6780   -3.5115   -2.0782 H         1 UNK         0.1085 
     77 H77        30.5148   -3.1007   -0.0739 H         1 UNK         0.0836 
     78 H78        29.1426   -3.4799    0.9086 H         1 UNK         0.0836 
     79 H79        32.0863   -4.7360   -1.0741 H         1 UNK         0.0731 
     80 H80        31.6525   -6.2962   -1.7243 H         1 UNK         0.0731 
     81 H81        32.0295   -2.8432   -2.5594 H         1 UNK         0.1312 
     82 H82        29.9111   -3.0269   -6.2754 H         1 UNK         0.1406 
     83 H83        29.7360   -6.3284   -3.5323 H         1 UNK         0.1631 
     84 H84        29.3770   -6.3337   -6.4271 H         1 UNK         0.0717 
     85 H85        28.0444   -6.1026   -5.3215 H         1 UNK         0.0717 
     86 H86        25.8482   -4.2110   -6.0313 H         1 UNK         0.0934 
     87 H87        27.1560   -3.3858   -5.2252 H         1 UNK         0.0934 
     88 H88        26.3175   -2.5595   -8.0340 H         1 UNK         0.0739 
     89 H89        24.6485   -2.0644   -5.7378 H         1 UNK         0.3093 
     90 H90        22.6601    0.3660   -7.4875 H         1 UNK         0.0818 
     91 H91        20.9067   -1.2660   -6.8671 H         1 UNK         0.0819 
     92 H92        21.8725   -1.9009   -8.1876 H         1 UNK         0.0819 
     93 H93        22.1197   -2.5078   -6.5562 H         1 UNK         0.0819 
     94 H94        22.4836   -0.7262   -4.8423 H         1 UNK         0.3041 
     95 H95        24.4143    1.8111   -3.2418 H         1 UNK         0.0784 
     96 H96        22.1287    2.7675   -3.6303 H         1 UNK         0.0793 
     97 H97        21.4090    1.2166   -3.2197 H         1 UNK         0.0793 
     98 H98        22.3080    2.1283   -2.0064 H         1 UNK         0.0793 
     99 H99        23.1418   -0.1911   -1.9013 H         1 UNK         0.3024 
    100 H100       24.6741   -1.6496   -0.7922 H         1 UNK         0.1171 
    101 H101       24.2526   -4.0760   -1.3909 H         1 UNK         0.0786 
    102 H102       23.0349   -3.0421   -2.1199 H         1 UNK         0.0786 
    103 H103       24.3483   -3.6771   -3.1045 H         1 UNK         0.0786 
    104 H104       26.8151   -2.0059   -2.6303 H         1 UNK         0.2977 
    105 H105       26.5311   -0.4767   -5.1593 H         1 UNK         0.3127 
    106 H106       29.1369    0.5348   -5.4759 H         1 UNK         0.0770 
    107 H107       26.6476    2.0070   -4.4672 H         1 UNK         0.0814 
    108 H108       28.3186    2.4386   -4.1373 H         1 UNK         0.0814 
    109 H109       27.6526    0.9436   -3.4937 H         1 UNK         0.0814 
    110 H110       26.0598    1.7297   -6.8945 H         1 UNK         0.2983 
    111 H111       27.2189    3.8075   -8.4653 H         1 UNK         0.0947 
    112 H112       24.9970    3.7858   -9.6204 H         1 UNK         0.0806 
    113 H113       24.8117    3.7517   -7.8733 H         1 UNK         0.0806 
    114 H114       24.5813    2.2793   -8.8121 H         1 UNK         0.0806 
    115 H115       26.4548    0.3874   -9.2436 H         1 UNK         0.3000 
    116 H116       27.1255    0.5755  -12.0113 H         1 UNK         0.0850 
    117 H117       26.9746   -1.9045  -11.9577 H         1 UNK         0.0810 
    118 H118       25.6214   -1.1778  -11.1051 H         1 UNK         0.0810 
    119 H119       26.9566   -1.8888  -10.2008 H         1 UNK         0.0810 
    120 H120       29.0109   -0.7516   -9.2175 H         1 UNK         0.3040 
    121 H121       31.2640   -1.4376  -10.9124 H         1 UNK         0.0766 
    122 H122       30.5923   -2.7990   -8.9203 H         1 UNK         0.0812 
    123 H123       30.9996   -1.4490   -7.8636 H         1 UNK         0.0812 
    124 H124       32.2559   -2.2424   -8.7975 H         1 UNK         0.0812 
    125 H125       30.4499    1.2968   -8.8074 H         1 UNK         0.3205 
    126 H126       31.4256    3.1945   -8.2364 H         1 UNK         0.0754 
    127 H127       32.8021    4.3950   -9.8957 H         1 UNK         0.0769 
    128 H128       31.4540    3.6021  -10.6948 H         1 UNK         0.0769 
    129 H129       33.0740    2.9151  -10.8035 H         1 UNK         0.0769 
    130 H130       32.2769    1.2406   -6.7097 H         1 UNK         0.2981 
    131 H131       35.0287    0.7303   -6.5015 H         1 UNK         0.0541 
    132 H132       36.6487    3.2869   -4.6383 H         1 UNK         0.3459 
    133 H133       36.7714    1.6917   -5.3326 H         1 UNK         0.3459 
    134 H134       34.5216    0.1111   -4.1068 H         1 UNK         0.0612 
    135 H135       32.9337    0.8037   -4.2734 H         1 UNK         0.0612 
    136 H136       30.8044   -0.9207   -5.5090 H         1 UNK         0.0624 
    137 H137       31.4007   -0.7765   -3.8724 H         1 UNK         0.0624 
@<TRIPOS>BOND
     1    1    2 1    
     2    1   72 1    
     3    1   73 1    
     4    1   74 1    
     5    2    3 2    
     6    2    4 am   BACKBONE|DICT|INTERRES
     7    4    5 1    
     8    4   75 1    
     9    5    6 1    
    10    5   35 1    
    11    5   76 1    
    12    6    7 1    
    13    6   77 1    
    14    6   78 1    
    15    7    8 1    
    16    8    9 1    
    17    8   79 1    
    18    8   80 1    
    19    9   10 ar   
    20    9   14 ar   
    21   10   11 ar   
    22   10   81 1    
    23   11   12 ar   
    24   11   71 1    
    25   12   13 ar   
    26   12   82 1    
    27   13   14 ar   
    28   13   15 1    
    29   14   83 1    
    30   15   16 1    
    31   15   84 1    
    32   15   85 1    
    33   16   17 1    
    34   17   18 1    
    35   17   86 1    
    36   17   87 1    
    37   18   19 1    
    38   18   37 1    
    39   18   88 1    
    40   19   20 am   BACKBONE|DICT|INTERRES
    41   19   89 1    
    42   20   21 2    
    43   20   22 1    
    44   22   23 1    
    45   22   24 1    
    46   22   90 1    
    47   23   91 1    
    48   23   92 1    
    49   23   93 1    
    50   24   25 am   BACKBONE|DICT|INTERRES
    51   24   94 1    
    52   25   26 2    
    53   25   27 1    
    54   27   28 1    
    55   27   29 1    
    56   27   95 1    
    57   28   96 1    
    58   28   97 1    
    59   28   98 1    
    60   29   30 am   BACKBONE|DICT|INTERRES
    61   29   99 1    
    62   30   31 2    
    63   30   32 1    
    64   32   33 1    
    65   32   34 1    
    66   32  100 1    
    67   33  101 1    
    68   33  102 1    
    69   33  103 1    
    70   34   35 am   BACKBONE|DICT|INTERRES
    71   34  104 1    
    72   35   36 2    
    73   37   38 2    
    74   37   39 am   BACKBONE|DICT|INTERRES
    75   39   40 1    
    76   39  105 1    
    77   40   41 1    
    78   40   42 1    
    79   40  106 1    
    80   41  107 1    
    81   41  108 1    
    82   41  109 1    
    83   42   43 2    
    84   42   44 am   BACKBONE|DICT|INTERRES
    85   44   45 1    
    86   44  110 1    
    87   45   46 1    
    88   45   47 1    
    89   45  111 1    
    90   46  112 1    
    91   46  113 1    
    92   46  114 1    
    93   47   48 2    
    94   47   49 am   BACKBONE|DICT|INTERRES
    95   49   50 1    
    96   49  115 1    
    97   50   51 1    
    98   50   52 1    
    99   50  116 1    
   100   51  117 1    
   101   51  118 1    
   102   51  119 1    
   103   52   53 2    
   104   52   54 am   BACKBONE|DICT|INTERRES
   105   54   55 1    
   106   54  120 1    
   107   55   56 1    
   108   55   57 1    
   109   55  121 1    
   110   56  122 1    
   111   56  123 1    
   112   56  124 1    
   113   57   58 2    
   114   57   59 am   BACKBONE|DICT|INTERRES
   115   59   60 1    
   116   59  125 1    
   117   60   61 1    
   118   60   62 1    
   119   60  126 1    
   120   61  127 1    
   121   61  128 1    
   122   61  129 1    
   123   62   63 2    
   124   62   64 am   BACKBONE|DICT|INTERRES
   125   64   65 1    
   126   64  130 1    
   127   65   66 1    
   128   65   69 1    
   129   65  131 1    
   130   66   67 am   BACKBONE|DICT|INTERRES
   131   66   68 2    
   132   67  132 1    
   133   67  133 1    
   134   69   70 1    
   135   69  134 1    
   136   69  135 1    
   137   70   71 1    
   138   71  136 1    
   139   71  137 1    
@<TRIPOS>SUBSTRUCTURE
     1 UNK         1 GROUP             0       ****    0 ROOT    
