@<TRIPOS>MOLECULE
3R137
137   139    1
SMALL
USER_CHARGES


@<TRIPOS>ATOM
      1 CA         28.5490   -1.6396    4.2274 C.3       0 UNK        -0.2020 
      2 C          28.6460   -1.2879    2.7503 C.2       0 UNK         0.4855 
      3 O          29.2940   -0.3020    2.3970 O.2       0 UNK        -0.5197 
      4 N          28.0147   -2.0898    1.8836 N.am      1 UNK        -0.4892 
      5 CA         27.9415   -1.8586    0.4384 C.3       1 UNK         0.0835 
      6 C6         27.5179   -3.1496   -0.3070 C.3       12 UNK        -0.0855 
      7 S7         27.8131   -3.0607   -2.1062 S.3       12 UNK        -0.2931 
      8 C8         29.3029   -4.0890   -2.2714 C.3       12 UNK         0.0378 
      9 C9         29.7697   -4.1543   -3.7176 C.ar      12 UNK        -0.0802 
     10 C10        30.8488   -3.3781   -4.1494 C.ar      12 UNK        -0.0944 
     11 C11        31.2925   -3.4458   -5.4749 C.ar      12 UNK        -0.0787 
     12 C12        30.6499   -4.3124   -6.3679 C.ar      12 UNK        -0.0862 
     13 C13        29.5792   -5.1081   -5.9431 C.ar      12 UNK        -0.0733 
     14 C14        29.1393   -5.0161   -4.6189 C.ar      12 UNK        -0.0832 
     15 C15        28.9395   -6.1211   -6.8871 C.3       12 UNK         0.0240 
     16 S16        28.0066   -5.3622   -8.2550 S.3       12 UNK        -0.2522 
     17 C17        26.6550   -4.4954   -7.3839 C.3       12 UNK        -0.0967 
     18 CA         26.3940   -3.0828   -7.9631 C.3       5 UNK         0.0660 
     19 N          25.1359   -2.5141   -7.4714 N.am      5 UNK        -0.4015 
     20 C          24.5719   -1.3899   -7.9396 C.2       4 UNK         0.4946 
     21 O          25.0105   -0.7495   -8.8941 O.2       4 UNK        -0.5353 
     22 CA         23.3395   -0.8564   -7.1852 C.3       4 UNK         0.0277 
     23 CB         22.0501   -1.4539   -7.7705 C.3       4 UNK        -0.1981 
     24 N          23.3791   -1.0902   -5.7359 N.am      4 UNK        -0.4209 
     25 C          24.3556   -0.6700   -4.9190 C.2       3 UNK         0.4942 
     26 O          25.3362   -0.0293   -5.3065 O.2       3 UNK        -0.5208 
     27 CA         24.2409   -1.1008   -3.4464 C.3       3 UNK         0.0250 
     28 CB         24.3466   -2.6315   -3.3168 C.3       3 UNK        -0.1990 
     29 N          25.2949   -0.4964   -2.6322 N.am      3 UNK        -0.4232 
     30 C          25.2931    0.7618   -2.1707 C.2       2 UNK         0.4993 
     31 O          24.3430    1.5356   -2.3055 O.2       2 UNK        -0.5286 
     32 CA         26.5742    1.2357   -1.4495 C.3       2 UNK         0.0209 
     33 CB         26.3024    2.3462   -0.4110 C.3       2 UNK        -0.1931 
     34 N          27.3592    0.1372   -0.8633 N.am      2 UNK        -0.4546 
     35 C          26.9835   -0.6890    0.1259 C.2       1 UNK         0.5154 
     36 O          25.9193   -0.5953    0.7435 O.2       1 UNK        -0.5181 
     37 C          27.5832   -2.1289   -7.7269 C.2       5 UNK         0.5014 
     38 O          28.3564   -1.8922   -8.6551 O.2       5 UNK        -0.5248 
     39 N          27.6835   -1.5624   -6.5151 N.am      6 UNK        -0.4434 
     40 CA         28.7262   -0.6013   -6.1550 C.3       6 UNK         0.0363 
     41 CB         28.7260   -0.3474   -4.6406 C.3       6 UNK        -0.1936 
     42 C          28.6018    0.7180   -6.9264 C.2       6 UNK         0.5081 
     43 O          29.6188    1.2652   -7.3523 O.2       6 UNK        -0.5248 
     44 N          27.3598    1.1802   -7.1263 N.am      7 UNK        -0.4718 
     45 CA         27.0322    2.3473   -7.9465 C.3       7 UNK         0.0273 
     46 CB         25.5444    2.6943   -7.7816 C.3       7 UNK        -0.1935 
     47 C          27.3930    2.1494   -9.4294 C.2       7 UNK         0.5018 
     48 O          27.9574    3.0609  -10.0345 O.2       7 UNK        -0.5186 
     49 N          27.0896    0.9629   -9.9775 N.am      8 UNK        -0.4240 
     50 CA         27.4375    0.5649  -11.3441 C.3       8 UNK         0.0235 
     51 CB         26.6881   -0.7239  -11.7193 C.3       8 UNK        -0.2000 
     52 C          28.9518    0.3930  -11.5485 C.2       8 UNK         0.4941 
     53 O          29.4777    0.8565  -12.5612 O.2       8 UNK        -0.5273 
     54 N          29.6255   -0.2568  -10.5881 N.am      9 UNK        -0.4262 
     55 CA         31.0776   -0.4558  -10.5811 C.3       9 UNK         0.0264 
     56 CB         31.4436   -1.4979   -9.5107 C.3       9 UNK        -0.1955 
     57 C          31.8717    0.8407  -10.3462 C.2       9 UNK         0.5031 
     58 O          33.0064    0.9376  -10.8157 O.2       9 UNK        -0.5390 
     59 N          31.2742    1.7885   -9.6077 N.am      10 UNK        -0.4204 
     60 CA         31.8521    3.0471   -9.1229 C.3       10 UNK         0.0237 
     61 CB         32.1993    3.9933  -10.2921 C.3       10 UNK        -0.1985 
     62 C          33.0275    2.8131   -8.1529 C.2       10 UNK         0.4970 
     63 O          33.9900    3.5830   -8.1518 O.2       10 UNK        -0.4914 
     64 N          32.9277    1.7451   -7.3506 N.am      11 UNK        -0.4285 
     65 CA         33.9441    1.3206   -6.3767 C.3       11 UNK         0.1007 
     66 C          33.9304    2.1075   -5.0332 C.2       11 UNK         0.5703 
     67 N          32.9475    2.9616   -4.7710 N.am      11 UNK        -0.7361 
     68 O          34.8409    1.9539   -4.2222 O.2       11 UNK        -0.4986 
     69 C69        33.9234   -0.2180   -6.1710 C.3       12 UNK        -0.0947 
     70 S70        32.3291   -0.8545   -5.5575 S.3       12 UNK        -0.2240 
     71 C71        32.5008   -2.6301   -5.9255 C.3       12 UNK         0.0194 
     72 H72        27.9599   -2.5411    4.3951 H         1 UNK         0.0906 
     73 H73        29.5440   -1.8036    4.6404 H         1 UNK         0.0906 
     74 H74        28.0822   -0.8228    4.7773 H         1 UNK         0.0906 
     75 H75        27.4657   -2.8624    2.2335 H         1 UNK         0.3140 
     76 H76        28.9455   -1.5853    0.1044 H         1 UNK         0.1085 
     77 H77        28.0641   -4.0062    0.0918 H         1 UNK         0.0836 
     78 H78        26.4621   -3.3711   -0.1366 H         1 UNK         0.0836 
     79 H79        29.0927   -5.0964   -1.9084 H         1 UNK         0.0731 
     80 H80        30.0917   -3.6877   -1.6330 H         1 UNK         0.0731 
     81 H81        31.3487   -2.7196   -3.4523 H         1 UNK         0.1312 
     82 H82        30.9945   -4.3881   -7.3902 H         1 UNK         0.1406 
     83 H83        28.3157   -5.6294   -4.2785 H         1 UNK         0.1631 
     84 H84        28.2766   -6.7956   -6.3428 H         1 UNK         0.0717 
     85 H85        29.7243   -6.7491   -7.3109 H         1 UNK         0.0717 
     86 H86        25.7600   -5.1109   -7.4878 H         1 UNK         0.0934 
     87 H87        26.8601   -4.4439   -6.3136 H         1 UNK         0.0934 
     88 H88        26.2804   -3.1855   -9.0448 H         1 UNK         0.0739 
     89 H89        24.6976   -2.9794   -6.6911 H         1 UNK         0.3093 
     90 H90        23.3113    0.2244   -7.3362 H         1 UNK         0.0818 
     91 H91        21.1641   -1.0054   -7.3206 H         1 UNK         0.0819 
     92 H92        21.9904   -1.2737   -8.8450 H         1 UNK         0.0819 
     93 H93        21.9963   -2.5325   -7.6178 H         1 UNK         0.0819 
     94 H94        22.6069   -1.6086   -5.3415 H         1 UNK         0.3041 
     95 H95        23.2698   -0.7769   -3.0661 H         1 UNK         0.0784 
     96 H96        23.5087   -3.1329   -3.8021 H         1 UNK         0.0793 
     97 H97        24.3385   -2.9414   -2.2713 H         1 UNK         0.0793 
     98 H98        25.2624   -3.0148   -3.7688 H         1 UNK         0.0793 
     99 H99        26.1245   -1.0546   -2.4895 H         1 UNK         0.3024 
    100 H100       27.2000    1.6712   -2.2304 H         1 UNK         0.1171 
    101 H101       27.2220    2.6641    0.0804 H         1 UNK         0.0786 
    102 H102       25.8695    3.2276   -0.8856 H         1 UNK         0.0786 
    103 H103       25.6045    2.0201    0.3605 H         1 UNK         0.0786 
    104 H104       28.2506   -0.0378   -1.3073 H         1 UNK         0.2977 
    105 H105       26.9688   -1.7355   -5.8242 H         1 UNK         0.3127 
    106 H106       29.6792   -1.0525   -6.4293 H         1 UNK         0.0770 
    107 H107       27.7810    0.0711   -4.2965 H         1 UNK         0.0814 
    108 H108       29.5150    0.3540   -4.3661 H         1 UNK         0.0814 
    109 H109       28.9121   -1.2676   -4.0915 H         1 UNK         0.0814 
    110 H110       26.5877    0.6856   -6.6878 H         1 UNK         0.2983 
    111 H111       27.6215    3.1875   -7.5728 H         1 UNK         0.0947 
    112 H112       25.2944    3.6036   -8.3296 H         1 UNK         0.0806 
    113 H113       25.2893    2.8639   -6.7352 H         1 UNK         0.0806 
    114 H114       24.9000    1.9003   -8.1584 H         1 UNK         0.0806 
    115 H115       26.5633    0.2891   -9.4267 H         1 UNK         0.3000 
    116 H116       27.1022    1.3579  -12.0160 H         1 UNK         0.0850 
    117 H117       26.9252   -1.0322  -12.7383 H         1 UNK         0.0810 
    118 H118       25.6084   -0.5830  -11.6656 H         1 UNK         0.0810 
    119 H119       26.9490   -1.5505  -11.0574 H         1 UNK         0.0810 
    120 H120       29.1043   -0.6827   -9.8220 H         1 UNK         0.3040 
    121 H121       31.3694   -0.8499  -11.5568 H         1 UNK         0.0766 
    122 H122       31.1440   -1.1717   -8.5141 H         1 UNK         0.0812 
    123 H123       32.5194   -1.6767   -9.4871 H         1 UNK         0.0812 
    124 H124       30.9589   -2.4548   -9.7059 H         1 UNK         0.0812 
    125 H125       30.3733    1.5587   -9.1985 H         1 UNK         0.3205 
    126 H126       31.0682    3.5272   -8.5352 H         1 UNK         0.0754 
    127 H127       32.4885    4.9785   -9.9245 H         1 UNK         0.0769 
    128 H128       31.3440    4.1329  -10.9535 H         1 UNK         0.0769 
    129 H129       33.0284    3.6142  -10.8903 H         1 UNK         0.0769 
    130 H130       32.0791    1.1958   -7.3728 H         1 UNK         0.2981 
    131 H131       34.9168    1.5484   -6.8167 H         1 UNK         0.0541 
    132 H132       32.1950    3.0890   -5.4277 H         1 UNK         0.3459 
    133 H133       32.9542    3.4708   -3.9017 H         1 UNK         0.3459 
    134 H134       34.7124   -0.5291   -5.4840 H         1 UNK         0.0612 
    135 H135       34.1454   -0.7081   -7.1203 H         1 UNK         0.0612 
    136 H136       33.3905   -3.0130   -5.4241 H         1 UNK         0.0624 
    137 H137       32.6682   -2.7518   -6.9965 H         1 UNK         0.0624 
@<TRIPOS>BOND
     1    1    2 1    
     2    1   72 1    
     3    1   73 1    
     4    1   74 1    
     5    2    3 2    
     6    2    4 am   BACKBONE|DICT|INTERRES
     7    4    5 1    
     8    4   75 1    
     9    5    6 1    
    10    5   35 1    
    11    5   76 1    
    12    6    7 1    
    13    6   77 1    
    14    6   78 1    
    15    7    8 1    
    16    8    9 1    
    17    8   79 1    
    18    8   80 1    
    19    9   10 ar   
    20    9   14 ar   
    21   10   11 ar   
    22   10   81 1    
    23   11   12 ar   
    24   11   71 1    
    25   12   13 ar   
    26   12   82 1    
    27   13   14 ar   
    28   13   15 1    
    29   14   83 1    
    30   15   16 1    
    31   15   84 1    
    32   15   85 1    
    33   16   17 1    
    34   17   18 1    
    35   17   86 1    
    36   17   87 1    
    37   18   19 1    
    38   18   37 1    
    39   18   88 1    
    40   19   20 am   BACKBONE|DICT|INTERRES
    41   19   89 1    
    42   20   21 2    
    43   20   22 1    
    44   22   23 1    
    45   22   24 1    
    46   22   90 1    
    47   23   91 1    
    48   23   92 1    
    49   23   93 1    
    50   24   25 am   BACKBONE|DICT|INTERRES
    51   24   94 1    
    52   25   26 2    
    53   25   27 1    
    54   27   28 1    
    55   27   29 1    
    56   27   95 1    
    57   28   96 1    
    58   28   97 1    
    59   28   98 1    
    60   29   30 am   BACKBONE|DICT|INTERRES
    61   29   99 1    
    62   30   31 2    
    63   30   32 1    
    64   32   33 1    
    65   32   34 1    
    66   32  100 1    
    67   33  101 1    
    68   33  102 1    
    69   33  103 1    
    70   34   35 am   BACKBONE|DICT|INTERRES
    71   34  104 1    
    72   35   36 2    
    73   37   38 2    
    74   37   39 am   BACKBONE|DICT|INTERRES
    75   39   40 1    
    76   39  105 1    
    77   40   41 1    
    78   40   42 1    
    79   40  106 1    
    80   41  107 1    
    81   41  108 1    
    82   41  109 1    
    83   42   43 2    
    84   42   44 am   BACKBONE|DICT|INTERRES
    85   44   45 1    
    86   44  110 1    
    87   45   46 1    
    88   45   47 1    
    89   45  111 1    
    90   46  112 1    
    91   46  113 1    
    92   46  114 1    
    93   47   48 2    
    94   47   49 am   BACKBONE|DICT|INTERRES
    95   49   50 1    
    96   49  115 1    
    97   50   51 1    
    98   50   52 1    
    99   50  116 1    
   100   51  117 1    
   101   51  118 1    
   102   51  119 1    
   103   52   53 2    
   104   52   54 am   BACKBONE|DICT|INTERRES
   105   54   55 1    
   106   54  120 1    
   107   55   56 1    
   108   55   57 1    
   109   55  121 1    
   110   56  122 1    
   111   56  123 1    
   112   56  124 1    
   113   57   58 2    
   114   57   59 am   BACKBONE|DICT|INTERRES
   115   59   60 1    
   116   59  125 1    
   117   60   61 1    
   118   60   62 1    
   119   60  126 1    
   120   61  127 1    
   121   61  128 1    
   122   61  129 1    
   123   62   63 2    
   124   62   64 am   BACKBONE|DICT|INTERRES
   125   64   65 1    
   126   64  130 1    
   127   65   66 1    
   128   65   69 1    
   129   65  131 1    
   130   66   67 am   BACKBONE|DICT|INTERRES
   131   66   68 2    
   132   67  132 1    
   133   67  133 1    
   134   69   70 1    
   135   69  134 1    
   136   69  135 1    
   137   70   71 1    
   138   71  136 1    
   139   71  137 1    
@<TRIPOS>SUBSTRUCTURE
     1 UNK         1 GROUP             0       ****    0 ROOT    
