@<TRIPOS>MOLECULE
3R137
137   139    1
SMALL
USER_CHARGES


@<TRIPOS>ATOM
      1 CA         30.1551    0.8569   -1.1454 C.3       0 UNK        -0.2020 
      2 C          29.4833   -0.4795   -1.4189 C.2       0 UNK         0.4855 
      3 O          29.1217   -0.7554   -2.5610 O.2       0 UNK        -0.5197 
      4 N          29.3124   -1.3109   -0.3833 N.am      1 UNK        -0.4892 
      5 CA         28.7088   -2.6452   -0.4653 C.3       1 UNK         0.0835 
      6 C6         29.1767   -3.5717    0.6876 C.3       12 UNK        -0.0855 
      7 S7         30.9823   -3.8082    0.7518 S.3       12 UNK        -0.2931 
      8 C8         31.1945   -5.3013   -0.2700 C.3       12 UNK         0.0378 
      9 C9         31.2678   -4.9645   -1.7524 C.ar      12 UNK        -0.0802 
     10 C10        32.3956   -4.3055   -2.2499 C.ar      12 UNK        -0.0944 
     11 C11        32.5089   -4.0212   -3.6113 C.ar      12 UNK        -0.0787 
     12 C12        31.4852   -4.4086   -4.4816 C.ar      12 UNK        -0.0862 
     13 C13        30.3372   -5.0424   -3.9964 C.ar      12 UNK        -0.0733 
     14 C14        30.2377   -5.3275   -2.6291 C.ar      12 UNK        -0.0832 
     15 C15        29.2238   -5.4439   -4.9586 C.3       12 UNK         0.0240 
     16 S16        27.7193   -4.4318   -4.7633 S.3       12 UNK        -0.2522 
     17 C17        28.2718   -2.7734   -5.2912 C.3       12 UNK        -0.0967 
     18 CA         27.5380   -2.2158   -6.5404 C.3       5 UNK         0.0660 
     19 N          26.0804   -2.2653   -6.4138 N.am      5 UNK        -0.4015 
     20 C          25.2274   -2.3135   -7.4460 C.2       4 UNK         0.4946 
     21 O          25.5791   -2.4201   -8.6214 O.2       4 UNK        -0.5353 
     22 CA         23.7226   -2.2306   -7.1244 C.3       4 UNK         0.0277 
     23 CB         23.1183   -3.6409   -7.0279 C.3       4 UNK        -0.1981 
     24 N          23.4185   -1.4914   -5.8958 N.am      4 UNK        -0.4209 
     25 C          23.6290   -0.1787   -5.7205 C.2       3 UNK         0.4942 
     26 O          24.0773    0.5664   -6.5890 O.2       3 UNK        -0.5208 
     27 CA         23.3584    0.3842   -4.3141 C.3       3 UNK         0.0250 
     28 CB         21.8757    0.7567   -4.1566 C.3       3 UNK        -0.1990 
     29 N          23.7599   -0.5220   -3.2306 N.am      3 UNK        -0.4232 
     30 C          24.9935   -1.0206   -3.0719 C.2       2 UNK         0.4993 
     31 O          25.9314   -0.7846   -3.8374 O.2       2 UNK        -0.5286 
     32 CA         25.1965   -1.9957   -1.9125 C.3       2 UNK         0.0209 
     33 CB         24.5983   -3.3749   -2.2528 C.3       2 UNK        -0.1931 
     34 N          26.6278   -2.1269   -1.6557 N.am      2 UNK        -0.4546 
     35 C          27.1698   -2.5463   -0.5107 C.2       1 UNK         0.5154 
     36 O          26.5018   -2.8345    0.4854 O.2       1 UNK        -0.5181 
     37 C          27.9803   -0.7636   -6.8101 C.2       5 UNK         0.5014 
     38 O          28.8142   -0.5248   -7.6848 O.2       5 UNK        -0.5248 
     39 N          27.4306    0.1779   -6.0300 N.am      6 UNK        -0.4434 
     40 CA         27.7801    1.5961   -6.0476 C.3       6 UNK         0.0363 
     41 CB         27.1475    2.2905   -4.8326 C.3       6 UNK        -0.1936 
     42 C          27.4004    2.3241   -7.3472 C.2       6 UNK         0.5081 
     43 O          28.1811    3.1629   -7.7978 O.2       6 UNK        -0.5248 
     44 N          26.2251    2.0100   -7.9147 N.am      7 UNK        -0.4718 
     45 CA         25.6519    2.6370   -9.1131 C.3       7 UNK         0.0273 
     46 CB         24.3336    1.9355   -9.4817 C.3       7 UNK        -0.1935 
     47 C          26.6131    2.6455  -10.3140 C.2       7 UNK         0.5018 
     48 O          26.9066    1.5829  -10.8661 O.2       7 UNK        -0.5186 
     49 N          27.1045    3.8437  -10.6633 N.am      8 UNK        -0.4240 
     50 CA         28.0716    4.1838  -11.7183 C.3       8 UNK         0.0235 
     51 CB         27.5325    3.8185  -13.1155 C.3       8 UNK        -0.2000 
     52 C          29.4897    3.6181  -11.5095 C.2       8 UNK         0.4941 
     53 O          30.4612    4.3445  -11.7210 O.2       8 UNK        -0.5273 
     54 N          29.5912    2.3443  -11.1159 N.am      9 UNK        -0.4262 
     55 CA         30.8427    1.6108  -10.9353 C.3       9 UNK         0.0264 
     56 CB         30.5421    0.1029  -10.9454 C.3       9 UNK        -0.1955 
     57 C          31.6188    1.9866   -9.6629 C.2       9 UNK         0.5031 
     58 O          32.8256    1.7417   -9.6234 O.2       9 UNK        -0.5390 
     59 N          30.9353    2.5215   -8.6364 N.am      10 UNK        -0.4204 
     60 CA         31.4725    2.8273   -7.3001 C.3       10 UNK         0.0237 
     61 CB         32.4430    4.0260   -7.3641 C.3       10 UNK        -0.1985 
     62 C          32.0855    1.5885   -6.6104 C.2       10 UNK         0.4970 
     63 O          33.1345    1.6921   -5.9739 O.2       10 UNK        -0.4914 
     64 N          31.4297    0.4346   -6.7936 N.am      11 UNK        -0.4285 
     65 CA         31.8739   -0.9117   -6.4063 C.3       11 UNK         0.1007 
     66 C          32.9755   -1.5214   -7.3287 C.2       11 UNK         0.5703 
     67 N          33.5768   -0.7844   -8.2553 N.am      11 UNK        -0.7361 
     68 O          33.2255   -2.7210   -7.2772 O.2       11 UNK        -0.4986 
     69 C69        32.0275   -1.0882   -4.8541 C.3       12 UNK        -0.0947 
     70 S70        33.6647   -1.5018   -4.1402 S.3       12 UNK        -0.2240 
     71 C71        33.7544   -3.3304   -4.1491 C.3       12 UNK         0.0194 
     72 H72        30.4195    0.9745   -0.0948 H         1 UNK         0.0906 
     73 H73        31.0660    0.9431   -1.7374 H         1 UNK         0.0906 
     74 H74        29.4895    1.6737   -1.4234 H         1 UNK         0.0906 
     75 H75        29.6221   -1.0324    0.5369 H         1 UNK         0.3140 
     76 H76        29.0229   -3.1048   -1.4047 H         1 UNK         0.1085 
     77 H77        28.8690   -3.1622    1.6519 H         1 UNK         0.0836 
     78 H78        28.6945   -4.5484    0.6139 H         1 UNK         0.0836 
     79 H79        32.1232   -5.7927    0.0239 H         1 UNK         0.0731 
     80 H80        30.3985   -6.0185   -0.0650 H         1 UNK         0.0731 
     81 H81        33.1900   -4.0191   -1.5739 H         1 UNK         0.1312 
     82 H82        31.5804   -4.1990   -5.5386 H         1 UNK         0.1406 
     83 H83        29.3592   -5.8342   -2.2528 H         1 UNK         0.1631 
     84 H84        28.9654   -6.4896   -4.7864 H         1 UNK         0.0717 
     85 H85        29.5617   -5.3821   -5.9943 H         1 UNK         0.0717 
     86 H86        28.1322   -2.1118   -4.4378 H         1 UNK         0.0934 
     87 H87        29.3453   -2.7942   -5.4745 H         1 UNK         0.0934 
     88 H88        27.8360   -2.8210   -7.3994 H         1 UNK         0.0739 
     89 H89        25.7170   -2.1334   -5.4794 H         1 UNK         0.3093 
     90 H90        23.2423   -1.7070   -7.9541 H         1 UNK         0.0818 
     91 H91        22.0379   -3.6023   -6.8870 H         1 UNK         0.0819 
     92 H92        23.3032   -4.2074   -7.9418 H         1 UNK         0.0819 
     93 H93        23.5467   -4.2090   -6.2010 H         1 UNK         0.0819 
     94 H94        23.0460   -2.0232   -5.1229 H         1 UNK         0.3041 
     95 H95        23.9491    1.2960   -4.2094 H         1 UNK         0.0784 
     96 H96        21.5612    1.4438   -4.9438 H         1 UNK         0.0793 
     97 H97        21.2285   -0.1196   -4.2112 H         1 UNK         0.0793 
     98 H98        21.6900    1.2534   -3.2041 H         1 UNK         0.0793 
     99 H99        23.0423   -0.7745   -2.5657 H         1 UNK         0.3024 
    100 H100       24.7075   -1.5837   -1.0266 H         1 UNK         0.1171 
    101 H101       25.0685   -3.8099   -3.1358 H         1 UNK         0.0786 
    102 H102       24.7252   -4.0781   -1.4296 H         1 UNK         0.0786 
    103 H103       23.5280   -3.3067   -2.4509 H         1 UNK         0.0786 
    104 H104       27.2337   -1.7824   -2.3965 H         1 UNK         0.2977 
    105 H105       26.7933   -0.1191   -5.2922 H         1 UNK         0.3127 
    106 H106       28.8633    1.6603   -5.9371 H         1 UNK         0.0770 
    107 H107       26.0588    2.2538   -4.8720 H         1 UNK         0.0814 
    108 H108       27.4386    3.3407   -4.7872 H         1 UNK         0.0814 
    109 H109       27.4652    1.8233   -3.8997 H         1 UNK         0.0814 
    110 H110       25.6327    1.3278   -7.4477 H         1 UNK         0.2983 
    111 H111       25.4147    3.6703   -8.8522 H         1 UNK         0.0947 
    112 H112       23.9221    2.3320  -10.4110 H         1 UNK         0.0806 
    113 H113       23.5779    2.0808   -8.7100 H         1 UNK         0.0806 
    114 H114       24.4739    0.8620   -9.6167 H         1 UNK         0.0806 
    115 H115       26.8313    4.6290  -10.0882 H         1 UNK         0.3000 
    116 H116       28.1680    5.2704  -11.6831 H         1 UNK         0.0850 
    117 H117       28.2136    4.1603  -13.8960 H         1 UNK         0.0810 
    118 H118       26.5658    4.2863  -13.3022 H         1 UNK         0.0810 
    119 H119       27.4135    2.7418  -13.2404 H         1 UNK         0.0810 
    120 H120       28.7215    1.8319  -10.9786 H         1 UNK         0.3040 
    121 H121       31.4914    1.8325  -11.7855 H         1 UNK         0.0766 
    122 H122       29.8579   -0.1771  -10.1438 H         1 UNK         0.0812 
    123 H123       31.4544   -0.4812  -10.8144 H         1 UNK         0.0812 
    124 H124       30.0938   -0.2054  -11.8899 H         1 UNK         0.0812 
    125 H125       29.9390    2.6877   -8.7457 H         1 UNK         0.3205 
    126 H126       30.6262    3.1309   -6.6838 H         1 UNK         0.0754 
    127 H127       32.7474    4.3369   -6.3639 H         1 UNK         0.0769 
    128 H128       31.9761    4.8873   -7.8420 H         1 UNK         0.0769 
    129 H129       33.3500    3.7854   -7.9196 H         1 UNK         0.0769 
    130 H130       30.5729    0.4386   -7.3372 H         1 UNK         0.2981 
    131 H131       31.0116   -1.5221   -6.6707 H         1 UNK         0.0541 
    132 H132       33.3382    0.1896   -8.4000 H         1 UNK         0.3459 
    133 H133       34.2567   -1.2225   -8.8551 H         1 UNK         0.3459 
    134 H134       31.2948   -1.8064   -4.4952 H         1 UNK         0.0612 
    135 H135       31.7182   -0.1718   -4.3495 H         1 UNK         0.0612 
    136 H136       34.6159   -3.6236   -3.5475 H         1 UNK         0.0624 
    137 H137       33.9769   -3.6933   -5.1503 H         1 UNK         0.0624 
@<TRIPOS>BOND
     1    1    2 1    
     2    1   72 1    
     3    1   73 1    
     4    1   74 1    
     5    2    3 2    
     6    2    4 am   BACKBONE|DICT|INTERRES
     7    4    5 1    
     8    4   75 1    
     9    5    6 1    
    10    5   35 1    
    11    5   76 1    
    12    6    7 1    
    13    6   77 1    
    14    6   78 1    
    15    7    8 1    
    16    8    9 1    
    17    8   79 1    
    18    8   80 1    
    19    9   10 ar   
    20    9   14 ar   
    21   10   11 ar   
    22   10   81 1    
    23   11   12 ar   
    24   11   71 1    
    25   12   13 ar   
    26   12   82 1    
    27   13   14 ar   
    28   13   15 1    
    29   14   83 1    
    30   15   16 1    
    31   15   84 1    
    32   15   85 1    
    33   16   17 1    
    34   17   18 1    
    35   17   86 1    
    36   17   87 1    
    37   18   19 1    
    38   18   37 1    
    39   18   88 1    
    40   19   20 am   BACKBONE|DICT|INTERRES
    41   19   89 1    
    42   20   21 2    
    43   20   22 1    
    44   22   23 1    
    45   22   24 1    
    46   22   90 1    
    47   23   91 1    
    48   23   92 1    
    49   23   93 1    
    50   24   25 am   BACKBONE|DICT|INTERRES
    51   24   94 1    
    52   25   26 2    
    53   25   27 1    
    54   27   28 1    
    55   27   29 1    
    56   27   95 1    
    57   28   96 1    
    58   28   97 1    
    59   28   98 1    
    60   29   30 am   BACKBONE|DICT|INTERRES
    61   29   99 1    
    62   30   31 2    
    63   30   32 1    
    64   32   33 1    
    65   32   34 1    
    66   32  100 1    
    67   33  101 1    
    68   33  102 1    
    69   33  103 1    
    70   34   35 am   BACKBONE|DICT|INTERRES
    71   34  104 1    
    72   35   36 2    
    73   37   38 2    
    74   37   39 am   BACKBONE|DICT|INTERRES
    75   39   40 1    
    76   39  105 1    
    77   40   41 1    
    78   40   42 1    
    79   40  106 1    
    80   41  107 1    
    81   41  108 1    
    82   41  109 1    
    83   42   43 2    
    84   42   44 am   BACKBONE|DICT|INTERRES
    85   44   45 1    
    86   44  110 1    
    87   45   46 1    
    88   45   47 1    
    89   45  111 1    
    90   46  112 1    
    91   46  113 1    
    92   46  114 1    
    93   47   48 2    
    94   47   49 am   BACKBONE|DICT|INTERRES
    95   49   50 1    
    96   49  115 1    
    97   50   51 1    
    98   50   52 1    
    99   50  116 1    
   100   51  117 1    
   101   51  118 1    
   102   51  119 1    
   103   52   53 2    
   104   52   54 am   BACKBONE|DICT|INTERRES
   105   54   55 1    
   106   54  120 1    
   107   55   56 1    
   108   55   57 1    
   109   55  121 1    
   110   56  122 1    
   111   56  123 1    
   112   56  124 1    
   113   57   58 2    
   114   57   59 am   BACKBONE|DICT|INTERRES
   115   59   60 1    
   116   59  125 1    
   117   60   61 1    
   118   60   62 1    
   119   60  126 1    
   120   61  127 1    
   121   61  128 1    
   122   61  129 1    
   123   62   63 2    
   124   62   64 am   BACKBONE|DICT|INTERRES
   125   64   65 1    
   126   64  130 1    
   127   65   66 1    
   128   65   69 1    
   129   65  131 1    
   130   66   67 am   BACKBONE|DICT|INTERRES
   131   66   68 2    
   132   67  132 1    
   133   67  133 1    
   134   69   70 1    
   135   69  134 1    
   136   69  135 1    
   137   70   71 1    
   138   71  136 1    
   139   71  137 1    
@<TRIPOS>SUBSTRUCTURE
     1 UNK         1 GROUP             0       ****    0 ROOT    
