@<TRIPOS>MOLECULE
3R137
137   139    1
SMALL
USER_CHARGES


@<TRIPOS>ATOM
      1 CA         25.9546   -5.0609   -4.4943 C.3       0 UNK        -0.2020 
      2 C          25.9286   -3.9964   -3.4089 C.2       0 UNK         0.4855 
      3 O          24.9152   -3.3178   -3.2403 O.2       0 UNK        -0.5197 
      4 N          27.0380   -3.8535   -2.6722 N.am      1 UNK        -0.4892 
      5 CA         27.1941   -2.9599   -1.5186 C.3       1 UNK         0.0835 
      6 C6         28.5667   -3.1296   -0.8201 C.3       12 UNK        -0.0855 
      7 S7         28.8712   -4.8618   -0.3170 S.3       12 UNK        -0.2931 
      8 C8         30.6441   -5.0929   -0.6956 C.3       12 UNK         0.0378 
      9 C9         31.0174   -4.7428   -2.1330 C.ar      12 UNK        -0.0802 
     10 C10        32.1261   -3.9279   -2.3813 C.ar      12 UNK        -0.0944 
     11 C11        32.4714   -3.5793   -3.6893 C.ar      12 UNK        -0.0787 
     12 C12        31.6953   -4.0434   -4.7542 C.ar      12 UNK        -0.0862 
     13 C13        30.5666   -4.8362   -4.5203 C.ar      12 UNK        -0.0733 
     14 C14        30.2565   -5.2116   -3.2096 C.ar      12 UNK        -0.0832 
     15 C15        29.6704   -5.2928   -5.6671 C.3       12 UNK         0.0240 
     16 S16        29.3259   -3.9989   -6.9098 S.3       12 UNK        -0.2522 
     17 C17        28.7884   -2.5599   -5.9173 C.3       12 UNK        -0.0967 
     18 CA         27.8477   -1.6431   -6.7477 C.3       5 UNK         0.0660 
     19 N          26.4233   -1.8627   -6.4629 N.am      5 UNK        -0.4015 
     20 C          25.4490   -1.5212   -7.3181 C.2       4 UNK         0.4946 
     21 O          25.6551   -0.9709   -8.3987 O.2       4 UNK        -0.5353 
     22 CA         23.9988   -1.8243   -6.9128 C.3       4 UNK         0.0277 
     23 CB         23.6418   -3.2866   -7.2225 C.3       4 UNK        -0.1981 
     24 N          23.6650   -1.5177   -5.5203 N.am      4 UNK        -0.4209 
     25 C          23.7454   -0.3068   -4.9524 C.2       3 UNK         0.4942 
     26 O          24.2797    0.6643   -5.4882 O.2       3 UNK        -0.5208 
     27 CA         23.1084   -0.1401   -3.5635 C.3       3 UNK         0.0250 
     28 CB         22.0410   -1.2028   -3.2290 C.3       3 UNK        -0.1990 
     29 N          24.1594   -0.1804   -2.5552 N.am      3 UNK        -0.4232 
     30 C          24.7502    0.8923   -2.0117 C.2       2 UNK         0.4993 
     31 O          24.3849    2.0500   -2.2187 O.2       2 UNK        -0.5286 
     32 CA         25.9411    0.6513   -1.0604 C.3       2 UNK         0.0209 
     33 CB         25.6403    1.2077    0.3426 C.3       2 UNK        -0.1931 
     34 N          26.3365   -0.7546   -0.9316 N.am      2 UNK        -0.4546 
     35 C          26.9474   -1.4805   -1.8769 C.2       1 UNK         0.5154 
     36 O          27.2851   -1.0362   -2.9785 O.2       1 UNK        -0.5181 
     37 C          28.2283   -0.1519   -6.6591 C.2       5 UNK         0.5014 
     38 O          29.0313    0.3099   -7.4722 O.2       5 UNK        -0.5248 
     39 N          27.6158    0.5939   -5.7286 N.am      6 UNK        -0.4434 
     40 CA         27.7427    2.0510   -5.6546 C.3       6 UNK         0.0363 
     41 CB         27.1533    2.5670   -4.3365 C.3       6 UNK        -0.1936 
     42 C          27.0909    2.7501   -6.8593 C.2       6 UNK         0.5081 
     43 O          27.7039    3.6495   -7.4331 O.2       6 UNK        -0.5248 
     44 N          25.8900    2.2993   -7.2531 N.am      7 UNK        -0.4718 
     45 CA         25.1597    2.7858   -8.4297 C.3       7 UNK         0.0273 
     46 CB         23.7517    2.1707   -8.4559 C.3       7 UNK        -0.1935 
     47 C          25.8965    2.5188   -9.7545 C.2       7 UNK         0.5018 
     48 O          25.8966    3.3835  -10.6312 O.2       7 UNK        -0.5186 
     49 N          26.5417    1.3489   -9.8613 N.am      8 UNK        -0.4240 
     50 CA         27.4111    0.9654  -10.9777 C.3       8 UNK         0.0235 
     51 CB         27.6175   -0.5585  -10.9486 C.3       8 UNK        -0.2000 
     52 C          28.7753    1.6835  -10.9849 C.2       8 UNK         0.4941 
     53 O          29.4918    1.5717  -11.9807 O.2       8 UNK        -0.5273 
     54 N          29.1181    2.3819   -9.8905 N.am      9 UNK        -0.4262 
     55 CA         30.3896    3.0638   -9.6263 C.3       9 UNK         0.0264 
     56 CB         30.5944    4.2527  -10.5898 C.3       9 UNK        -0.1955 
     57 C          31.5831    2.0892   -9.5926 C.2       9 UNK         0.5031 
     58 O          32.6293    2.3676  -10.1843 O.2       9 UNK        -0.5390 
     59 N          31.3968    0.9573   -8.9010 N.am      10 UNK        -0.4204 
     60 CA         32.4205   -0.0580   -8.6537 C.3       10 UNK         0.0237 
     61 CB         31.7148   -1.3950   -8.3501 C.3       10 UNK        -0.1985 
     62 C          33.3729    0.3557   -7.5122 C.2       10 UNK         0.4970 
     63 O          33.2957    1.4773   -7.0028 O.2       10 UNK        -0.4914 
     64 N          34.2400   -0.5854   -7.1193 N.am      11 UNK        -0.4285 
     65 CA         35.2414   -0.4642   -6.0460 C.3       11 UNK         0.1007 
     66 C          36.4514    0.4356   -6.4424 C.2       11 UNK         0.5703 
     67 N          37.3115    0.7970   -5.4986 N.am      11 UNK        -0.7361 
     68 O          36.6516    0.7756   -7.6078 O.2       11 UNK        -0.4986 
     69 C69        34.6433   -0.1122   -4.6442 C.3       12 UNK        -0.0947 
     70 S70        33.0877   -0.9674   -4.2193 S.3       12 UNK        -0.2240 
     71 C71        33.6583   -2.6702   -3.9565 C.3       12 UNK         0.0194 
     72 H72        26.5711   -5.9093   -4.1990 H         1 UNK         0.0906 
     73 H73        26.3456   -4.6548   -5.4263 H         1 UNK         0.0906 
     74 H74        24.9484   -5.4361   -4.6794 H         1 UNK         0.0906 
     75 H75        27.8439   -4.4274   -2.8655 H         1 UNK         0.3140 
     76 H76        26.4206   -3.2572   -0.8066 H         1 UNK         0.1085 
     77 H77        28.6192   -2.5111    0.0781 H         1 UNK         0.0836 
     78 H78        29.3664   -2.7762   -1.4731 H         1 UNK         0.0836 
     79 H79        31.2233   -4.4934    0.0087 H         1 UNK         0.0731 
     80 H80        30.9120   -6.1332   -0.5066 H         1 UNK         0.0731 
     81 H81        32.7174   -3.5544   -1.5562 H         1 UNK         0.1312 
     82 H82        31.9530   -3.7566   -5.7646 H         1 UNK         0.1406 
     83 H83        29.4085   -5.8549   -3.0193 H         1 UNK         0.1631 
     84 H84        28.7189   -5.6630   -5.2870 H         1 UNK         0.0717 
     85 H85        30.1478   -6.1361   -6.1675 H         1 UNK         0.0717 
     86 H86        28.3119   -2.8920   -4.9955 H         1 UNK         0.0934 
     87 H87        29.6922   -2.0354   -5.5995 H         1 UNK         0.0934 
     88 H88        27.9930   -1.8870   -7.8028 H         1 UNK         0.0739 
     89 H89        26.1763   -2.2530   -5.5660 H         1 UNK         0.3093 
     90 H90        23.3607   -1.1917   -7.5334 H         1 UNK         0.0818 
     91 H91        23.8681   -3.5320   -8.2613 H         1 UNK         0.0819 
     92 H92        24.1974   -3.9828   -6.5954 H         1 UNK         0.0819 
     93 H93        22.5786   -3.4758   -7.0728 H         1 UNK         0.0819 
     94 H94        23.2695   -2.2689   -4.9720 H         1 UNK         0.3041 
     95 H95        22.6139    0.8337   -3.5576 H         1 UNK         0.0784 
     96 H96        21.2675   -1.2408   -3.9975 H         1 UNK         0.0793 
     97 H97        22.4626   -2.2032   -3.1279 H         1 UNK         0.0793 
     98 H98        21.5425   -0.9656   -2.2889 H         1 UNK         0.0793 
     99 H99        24.5512   -1.0931   -2.3640 H         1 UNK         0.3024 
    100 H100       26.7891    1.2033   -1.4696 H         1 UNK         0.1171 
    101 H101       25.3969    2.2704    0.3000 H         1 UNK         0.0786 
    102 H102       24.7940    0.6988    0.8056 H         1 UNK         0.0786 
    103 H103       26.5001    1.1037    1.0048 H         1 UNK         0.0786 
    104 H104       26.0917   -1.2022   -0.0593 H         1 UNK         0.2977 
    105 H105       26.9888    0.1486   -5.0714 H         1 UNK         0.3127 
    106 H106       28.8074    2.2953   -5.6641 H         1 UNK         0.0770 
    107 H107       26.0854    2.3612   -4.2689 H         1 UNK         0.0814 
    108 H108       27.2822    3.6464   -4.2480 H         1 UNK         0.0814 
    109 H109       27.6463    2.1095   -3.4797 H         1 UNK         0.0814 
    110 H110       25.4274    1.5874   -6.6911 H         1 UNK         0.2983 
    111 H111       25.0562    3.8681   -8.3265 H         1 UNK         0.0947 
    112 H112       23.7878    1.0846   -8.5421 H         1 UNK         0.0806 
    113 H113       23.1764    2.5471   -9.3028 H         1 UNK         0.0806 
    114 H114       23.1954    2.4152   -7.5507 H         1 UNK         0.0806 
    115 H115       26.4074    0.6527   -9.1317 H         1 UNK         0.3000 
    116 H116       26.9037    1.2246  -11.9093 H         1 UNK         0.0850 
    117 H117       28.2195   -0.8905  -11.7955 H         1 UNK         0.0810 
    118 H118       26.6670   -1.0898  -11.0000 H         1 UNK         0.0810 
    119 H119       28.1307   -0.8751  -10.0399 H         1 UNK         0.0810 
    120 H120       28.4548    2.4098   -9.1254 H         1 UNK         0.3040 
    121 H121       30.3074    3.4720   -8.6178 H         1 UNK         0.0766 
    122 H122       29.7405    4.9298  -10.5694 H         1 UNK         0.0812 
    123 H123       30.7377    3.9228  -11.6190 H         1 UNK         0.0812 
    124 H124       31.4746    4.8327  -10.3101 H         1 UNK         0.0812 
    125 H125       30.5078    0.8171   -8.4209 H         1 UNK         0.3205 
    126 H126       33.0165   -0.1786   -9.5607 H         1 UNK         0.0754 
    127 H127       32.4136   -2.2317   -8.3575 H         1 UNK         0.0769 
    128 H128       30.9457   -1.6185   -9.0901 H         1 UNK         0.0769 
    129 H129       31.2365   -1.3790   -7.3704 H         1 UNK         0.0769 
    130 H130       34.2519   -1.4620   -7.6182 H         1 UNK         0.2981 
    131 H131       35.6687   -1.4638   -5.9675 H         1 UNK         0.0541 
    132 H132       38.1052    1.3641   -5.7531 H         1 UNK         0.3459 
    133 H133       37.1836    0.5169   -4.5392 H         1 UNK         0.3459 
    134 H134       34.4427    0.9587   -4.5819 H         1 UNK         0.0612 
    135 H135       35.3669   -0.3275   -3.8567 H         1 UNK         0.0612 
    136 H136       34.3634   -2.6955   -3.1241 H         1 UNK         0.0624 
    137 H137       34.1966   -3.0207   -4.8379 H         1 UNK         0.0624 
@<TRIPOS>BOND
     1    1    2 1    
     2    1   72 1    
     3    1   73 1    
     4    1   74 1    
     5    2    3 2    
     6    2    4 am   BACKBONE|DICT|INTERRES
     7    4    5 1    
     8    4   75 1    
     9    5    6 1    
    10    5   35 1    
    11    5   76 1    
    12    6    7 1    
    13    6   77 1    
    14    6   78 1    
    15    7    8 1    
    16    8    9 1    
    17    8   79 1    
    18    8   80 1    
    19    9   10 ar   
    20    9   14 ar   
    21   10   11 ar   
    22   10   81 1    
    23   11   12 ar   
    24   11   71 1    
    25   12   13 ar   
    26   12   82 1    
    27   13   14 ar   
    28   13   15 1    
    29   14   83 1    
    30   15   16 1    
    31   15   84 1    
    32   15   85 1    
    33   16   17 1    
    34   17   18 1    
    35   17   86 1    
    36   17   87 1    
    37   18   19 1    
    38   18   37 1    
    39   18   88 1    
    40   19   20 am   BACKBONE|DICT|INTERRES
    41   19   89 1    
    42   20   21 2    
    43   20   22 1    
    44   22   23 1    
    45   22   24 1    
    46   22   90 1    
    47   23   91 1    
    48   23   92 1    
    49   23   93 1    
    50   24   25 am   BACKBONE|DICT|INTERRES
    51   24   94 1    
    52   25   26 2    
    53   25   27 1    
    54   27   28 1    
    55   27   29 1    
    56   27   95 1    
    57   28   96 1    
    58   28   97 1    
    59   28   98 1    
    60   29   30 am   BACKBONE|DICT|INTERRES
    61   29   99 1    
    62   30   31 2    
    63   30   32 1    
    64   32   33 1    
    65   32   34 1    
    66   32  100 1    
    67   33  101 1    
    68   33  102 1    
    69   33  103 1    
    70   34   35 am   BACKBONE|DICT|INTERRES
    71   34  104 1    
    72   35   36 2    
    73   37   38 2    
    74   37   39 am   BACKBONE|DICT|INTERRES
    75   39   40 1    
    76   39  105 1    
    77   40   41 1    
    78   40   42 1    
    79   40  106 1    
    80   41  107 1    
    81   41  108 1    
    82   41  109 1    
    83   42   43 2    
    84   42   44 am   BACKBONE|DICT|INTERRES
    85   44   45 1    
    86   44  110 1    
    87   45   46 1    
    88   45   47 1    
    89   45  111 1    
    90   46  112 1    
    91   46  113 1    
    92   46  114 1    
    93   47   48 2    
    94   47   49 am   BACKBONE|DICT|INTERRES
    95   49   50 1    
    96   49  115 1    
    97   50   51 1    
    98   50   52 1    
    99   50  116 1    
   100   51  117 1    
   101   51  118 1    
   102   51  119 1    
   103   52   53 2    
   104   52   54 am   BACKBONE|DICT|INTERRES
   105   54   55 1    
   106   54  120 1    
   107   55   56 1    
   108   55   57 1    
   109   55  121 1    
   110   56  122 1    
   111   56  123 1    
   112   56  124 1    
   113   57   58 2    
   114   57   59 am   BACKBONE|DICT|INTERRES
   115   59   60 1    
   116   59  125 1    
   117   60   61 1    
   118   60   62 1    
   119   60  126 1    
   120   61  127 1    
   121   61  128 1    
   122   61  129 1    
   123   62   63 2    
   124   62   64 am   BACKBONE|DICT|INTERRES
   125   64   65 1    
   126   64  130 1    
   127   65   66 1    
   128   65   69 1    
   129   65  131 1    
   130   66   67 am   BACKBONE|DICT|INTERRES
   131   66   68 2    
   132   67  132 1    
   133   67  133 1    
   134   69   70 1    
   135   69  134 1    
   136   69  135 1    
   137   70   71 1    
   138   71  136 1    
   139   71  137 1    
@<TRIPOS>SUBSTRUCTURE
     1 UNK         1 GROUP             0       ****    0 ROOT    
