@<TRIPOS>MOLECULE
3R137
137   139    1
SMALL
USER_CHARGES


@<TRIPOS>ATOM
      1 CA         24.5143   -6.2702   -3.9138 C.3       0 UNK        -0.2020 
      2 C          25.2685   -5.1326   -3.2435 C.2       0 UNK         0.4855 
      3 O          25.4350   -4.0746   -3.8497 O.2       0 UNK        -0.5197 
      4 N          25.7188   -5.3393   -1.9977 N.am      1 UNK        -0.4892 
      5 CA         26.4684   -4.3761   -1.1744 C.3       1 UNK         0.0835 
      6 C6         27.8911   -4.0727   -1.7337 C.3       12 UNK        -0.0855 
      7 S7         28.8927   -5.5555   -2.0898 S.3       12 UNK        -0.2931 
      8 C8         30.5852   -4.9147   -1.8594 C.3       12 UNK         0.0378 
      9 C9         30.8439   -3.6421   -2.6587 C.ar      12 UNK        -0.0802 
     10 C10        30.9200   -3.6870   -4.0538 C.ar      12 UNK        -0.0944 
     11 C11        31.1624   -2.5224   -4.7874 C.ar      12 UNK        -0.0787 
     12 C12        31.3323   -1.3095   -4.1162 C.ar      12 UNK        -0.0862 
     13 C13        31.2456   -1.2432   -2.7218 C.ar      12 UNK        -0.0733 
     14 C14        31.0082   -2.4181   -2.0008 C.ar      12 UNK        -0.0832 
     15 C15        31.4235    0.0764   -1.9695 C.3       12 UNK         0.0240 
     16 S16        30.7347    1.5466   -2.8120 S.3       12 UNK        -0.2522 
     17 C17        28.9996    1.0591   -3.0920 C.3       12 UNK        -0.0967 
     18 CA         28.6621    1.0080   -4.6081 C.3       5 UNK         0.0660 
     19 N          27.8234   -0.1398   -4.9488 N.am      5 UNK        -0.4015 
     20 C          27.6587   -0.6337   -6.1837 C.2       4 UNK         0.4946 
     21 O          28.2549   -0.2203   -7.1792 O.2       4 UNK        -0.5353 
     22 CA         26.6335   -1.7707   -6.3383 C.3       4 UNK         0.0277 
     23 CB         27.3327   -3.1366   -6.2569 C.3       4 UNK        -0.1981 
     24 N          25.5535   -1.7172   -5.3461 N.am      4 UNK        -0.4209 
     25 C          24.6389   -0.7394   -5.2719 C.2       3 UNK         0.4942 
     26 O          24.5949    0.2120   -6.0502 O.2       3 UNK        -0.5208 
     27 CA         23.6466   -0.7948   -4.0991 C.3       3 UNK         0.0250 
     28 CB         22.5863   -1.8853   -4.3209 C.3       3 UNK        -0.1990 
     29 N          24.2964   -0.9888   -2.7994 N.am      3 UNK        -0.4232 
     30 C          25.2021   -0.1676   -2.2508 C.2       2 UNK         0.4993 
     31 O          25.6255    0.8466   -2.8039 O.2       2 UNK        -0.5286 
     32 CA         25.7811   -0.5592   -0.8804 C.3       2 UNK         0.0209 
     33 CB         24.7849   -0.2823    0.2632 C.3       2 UNK        -0.1931 
     34 N          26.3083   -1.9311   -0.8565 N.am      2 UNK        -0.4546 
     35 C          25.6360   -3.0906   -0.9289 C.2       1 UNK         0.5154 
     36 O          24.4058   -3.1639   -0.8580 O.2       1 UNK        -0.5181 
     37 C          28.0200    2.3175   -5.1035 C.2       5 UNK         0.5014 
     38 O          28.6876    3.1067   -5.7714 O.2       5 UNK        -0.5248 
     39 N          26.7246    2.5034   -4.8059 N.am      6 UNK        -0.4434 
     40 CA         25.9089    3.6368   -5.2518 C.3       6 UNK         0.0363 
     41 CB         24.5352    3.5797   -4.5650 C.3       6 UNK        -0.1936 
     42 C          25.7507    3.7004   -6.7808 C.2       6 UNK         0.5081 
     43 O          25.8003    4.7908   -7.3502 O.2       6 UNK        -0.5248 
     44 N          25.5990    2.5325   -7.4202 N.am      7 UNK        -0.4718 
     45 CA         25.5767    2.3728   -8.8772 C.3       7 UNK         0.0273 
     46 CB         25.0187    0.9813   -9.2180 C.3       7 UNK        -0.1935 
     47 C          26.9532    2.5662   -9.5423 C.2       7 UNK         0.5018 
     48 O          26.9990    2.7552  -10.7585 O.2       7 UNK        -0.5186 
     49 N          28.0329    2.5012   -8.7472 N.am      8 UNK        -0.4240 
     50 CA         29.4448    2.5653   -9.1358 C.3       8 UNK         0.0235 
     51 CB         29.8110    3.9744   -9.6473 C.3       8 UNK        -0.2000 
     52 C          29.8229    1.4441  -10.1199 C.2       8 UNK         0.4941 
     53 O          30.3819    1.7133  -11.1871 O.2       8 UNK        -0.5273 
     54 N          29.4910    0.1983   -9.7542 N.am      9 UNK        -0.4262 
     55 CA         29.7323   -1.0147  -10.5405 C.3       9 UNK         0.0264 
     56 CB         28.8318   -2.1380   -9.9959 C.3       9 UNK        -0.1955 
     57 C          31.2234   -1.4076  -10.5489 C.2       9 UNK         0.5031 
     58 O          31.5935   -2.4364   -9.9819 O.2       9 UNK        -0.5390 
     59 N          32.0555   -0.5550  -11.1623 N.am      10 UNK        -0.4204 
     60 CA         33.5245   -0.5589  -11.2050 C.3       10 UNK         0.0237 
     61 CB         34.0998   -1.8661  -11.7874 C.3       10 UNK        -0.1985 
     62 C          34.1454   -0.2054   -9.8435 C.2       10 UNK         0.4970 
     63 O          34.8796    0.7795   -9.7545 O.2       10 UNK        -0.4914 
     64 N          33.8140   -0.9845   -8.8092 N.am      11 UNK        -0.4285 
     65 CA         34.0491   -0.6552   -7.3979 C.3       11 UNK         0.1007 
     66 C          33.1326    0.4965   -6.8952 C.2       11 UNK         0.5703 
     67 N          33.5152    1.1605   -5.8126 N.am      11 UNK        -0.7361 
     68 O          32.0756    0.7813   -7.4539 O.2       11 UNK        -0.4986 
     69 C69        34.0043   -1.9085   -6.4717 C.3       12 UNK        -0.0947 
     70 S70        32.8047   -3.2148   -6.9196 S.3       12 UNK        -0.2240 
     71 C71        31.2192   -2.5698   -6.3057 C.3       12 UNK         0.0194 
     72 H72        25.0193   -6.5604   -4.8347 H         1 UNK         0.0906 
     73 H73        24.4448   -7.1486   -3.2726 H         1 UNK         0.0906 
     74 H74        23.5034   -5.9507   -4.1652 H         1 UNK         0.0906 
     75 H75        25.5243   -6.2227   -1.5478 H         1 UNK         0.3140 
     76 H76        26.5882   -4.8412   -0.1947 H         1 UNK         0.1085 
     77 H77        28.4499   -3.4707   -1.0157 H         1 UNK         0.0836 
     78 H78        27.8314   -3.4893   -2.6550 H         1 UNK         0.0836 
     79 H79        30.7570   -4.7452   -0.7953 H         1 UNK         0.0731 
     80 H80        31.2985   -5.6820   -2.1638 H         1 UNK         0.0731 
     81 H81        30.7866   -4.6288   -4.5686 H         1 UNK         0.1312 
     82 H82        31.5228   -0.4116   -4.6842 H         1 UNK         0.1406 
     83 H83        30.9524   -2.3802   -0.9211 H         1 UNK         0.1631 
     84 H84        32.4893    0.2395   -1.8055 H         1 UNK         0.0717 
     85 H85        30.9663    0.0115   -0.9809 H         1 UNK         0.0717 
     86 H86        28.8359    0.0852   -2.6291 H         1 UNK         0.0934 
     87 H87        28.3474    1.7423   -2.5433 H         1 UNK         0.0934 
     88 H88        29.5883    0.8812   -5.1735 H         1 UNK         0.0739 
     89 H89        27.2510   -0.5184   -4.2101 H         1 UNK         0.3093 
     90 H90        26.1823   -1.6763   -7.3277 H         1 UNK         0.0818 
     91 H91        28.0903   -3.2356   -7.0327 H         1 UNK         0.0819 
     92 H92        27.8261   -3.2832   -5.2948 H         1 UNK         0.0819 
     93 H93        26.6243   -3.9533   -6.3963 H         1 UNK         0.0819 
     94 H94        25.4940   -2.5021   -4.6953 H         1 UNK         0.3041 
     95 H95        23.1350    0.1693   -4.0627 H         1 UNK         0.0784 
     96 H96        22.0844   -1.7522   -5.2803 H         1 UNK         0.0793 
     97 H97        23.0229   -2.8845   -4.3167 H         1 UNK         0.0793 
     98 H98        21.8187   -1.8536   -3.5475 H         1 UNK         0.0793 
     99 H99        24.0530   -1.8258   -2.2774 H         1 UNK         0.3024 
    100 H100       26.6426    0.0904   -0.7142 H         1 UNK         0.1171 
    101 H101       25.2135   -0.5378    1.2322 H         1 UNK         0.0786 
    102 H102       24.5204    0.7754    0.2948 H         1 UNK         0.0786 
    103 H103       23.8551   -0.8400    0.1503 H         1 UNK         0.0786 
    104 H104       27.3151   -1.9878   -0.9142 H         1 UNK         0.2977 
    105 H105       26.2596    1.8234   -4.2052 H         1 UNK         0.3127 
    106 H106       26.4134    4.5514   -4.9335 H         1 UNK         0.0770 
    107 H107       23.9929    2.6694   -4.8238 H         1 UNK         0.0814 
    108 H108       23.9145    4.4264   -4.8610 H         1 UNK         0.0814 
    109 H109       24.6331    3.6116   -3.4797 H         1 UNK         0.0814 
    110 H110       25.4700    1.6876   -6.8668 H         1 UNK         0.2983 
    111 H111       24.9040    3.1258   -9.2935 H         1 UNK         0.0947 
    112 H112       24.9378    0.8445  -10.2972 H         1 UNK         0.0806 
    113 H113       24.0233    0.8376   -8.7973 H         1 UNK         0.0806 
    114 H114       25.6622    0.1883   -8.8361 H         1 UNK         0.0806 
    115 H115       27.8729    2.3406   -7.7607 H         1 UNK         0.3000 
    116 H116       30.0196    2.3840   -8.2262 H         1 UNK         0.0850 
    117 H117       30.8816    4.0510   -9.8405 H         1 UNK         0.0810 
    118 H118       29.5583    4.7385   -8.9121 H         1 UNK         0.0810 
    119 H119       29.2944    4.2172  -10.5764 H         1 UNK         0.0810 
    120 H120       29.0632    0.0651   -8.8382 H         1 UNK         0.3040 
    121 H121       29.4370   -0.8217  -11.5739 H         1 UNK         0.0766 
    122 H122       27.7791   -1.8567  -10.0273 H         1 UNK         0.0812 
    123 H123       29.0834   -2.3803   -8.9634 H         1 UNK         0.0812 
    124 H124       28.9448   -3.0502  -10.5830 H         1 UNK         0.0812 
    125 H125       31.6198    0.3039  -11.4949 H         1 UNK         0.3205 
    126 H126       33.7956    0.2449  -11.8915 H         1 UNK         0.0754 
    127 H127       35.1806   -1.7895  -11.9119 H         1 UNK         0.0769 
    128 H128       33.6750   -2.0823  -12.7676 H         1 UNK         0.0769 
    129 H129       33.9117   -2.7263  -11.1445 H         1 UNK         0.0769 
    130 H130       33.1501   -1.7343   -8.9818 H         1 UNK         0.2981 
    131 H131       35.0660   -0.2618   -7.3390 H         1 UNK         0.0541 
    132 H132       34.3790    0.9424   -5.3416 H         1 UNK         0.3459 
    133 H133       32.9328    1.9074   -5.4690 H         1 UNK         0.3459 
    134 H134       34.9835   -2.3877   -6.5079 H         1 UNK         0.0612 
    135 H135       33.8705   -1.6363   -5.4237 H         1 UNK         0.0612 
    136 H136       31.0210   -1.5893   -6.7394 H         1 UNK         0.0624 
    137 H137       30.4266   -3.2216   -6.6728 H         1 UNK         0.0624 
@<TRIPOS>BOND
     1    1    2 1    
     2    1   72 1    
     3    1   73 1    
     4    1   74 1    
     5    2    3 2    
     6    2    4 am   BACKBONE|DICT|INTERRES
     7    4    5 1    
     8    4   75 1    
     9    5    6 1    
    10    5   35 1    
    11    5   76 1    
    12    6    7 1    
    13    6   77 1    
    14    6   78 1    
    15    7    8 1    
    16    8    9 1    
    17    8   79 1    
    18    8   80 1    
    19    9   10 ar   
    20    9   14 ar   
    21   10   11 ar   
    22   10   81 1    
    23   11   12 ar   
    24   11   71 1    
    25   12   13 ar   
    26   12   82 1    
    27   13   14 ar   
    28   13   15 1    
    29   14   83 1    
    30   15   16 1    
    31   15   84 1    
    32   15   85 1    
    33   16   17 1    
    34   17   18 1    
    35   17   86 1    
    36   17   87 1    
    37   18   19 1    
    38   18   37 1    
    39   18   88 1    
    40   19   20 am   BACKBONE|DICT|INTERRES
    41   19   89 1    
    42   20   21 2    
    43   20   22 1    
    44   22   23 1    
    45   22   24 1    
    46   22   90 1    
    47   23   91 1    
    48   23   92 1    
    49   23   93 1    
    50   24   25 am   BACKBONE|DICT|INTERRES
    51   24   94 1    
    52   25   26 2    
    53   25   27 1    
    54   27   28 1    
    55   27   29 1    
    56   27   95 1    
    57   28   96 1    
    58   28   97 1    
    59   28   98 1    
    60   29   30 am   BACKBONE|DICT|INTERRES
    61   29   99 1    
    62   30   31 2    
    63   30   32 1    
    64   32   33 1    
    65   32   34 1    
    66   32  100 1    
    67   33  101 1    
    68   33  102 1    
    69   33  103 1    
    70   34   35 am   BACKBONE|DICT|INTERRES
    71   34  104 1    
    72   35   36 2    
    73   37   38 2    
    74   37   39 am   BACKBONE|DICT|INTERRES
    75   39   40 1    
    76   39  105 1    
    77   40   41 1    
    78   40   42 1    
    79   40  106 1    
    80   41  107 1    
    81   41  108 1    
    82   41  109 1    
    83   42   43 2    
    84   42   44 am   BACKBONE|DICT|INTERRES
    85   44   45 1    
    86   44  110 1    
    87   45   46 1    
    88   45   47 1    
    89   45  111 1    
    90   46  112 1    
    91   46  113 1    
    92   46  114 1    
    93   47   48 2    
    94   47   49 am   BACKBONE|DICT|INTERRES
    95   49   50 1    
    96   49  115 1    
    97   50   51 1    
    98   50   52 1    
    99   50  116 1    
   100   51  117 1    
   101   51  118 1    
   102   51  119 1    
   103   52   53 2    
   104   52   54 am   BACKBONE|DICT|INTERRES
   105   54   55 1    
   106   54  120 1    
   107   55   56 1    
   108   55   57 1    
   109   55  121 1    
   110   56  122 1    
   111   56  123 1    
   112   56  124 1    
   113   57   58 2    
   114   57   59 am   BACKBONE|DICT|INTERRES
   115   59   60 1    
   116   59  125 1    
   117   60   61 1    
   118   60   62 1    
   119   60  126 1    
   120   61  127 1    
   121   61  128 1    
   122   61  129 1    
   123   62   63 2    
   124   62   64 am   BACKBONE|DICT|INTERRES
   125   64   65 1    
   126   64  130 1    
   127   65   66 1    
   128   65   69 1    
   129   65  131 1    
   130   66   67 am   BACKBONE|DICT|INTERRES
   131   66   68 2    
   132   67  132 1    
   133   67  133 1    
   134   69   70 1    
   135   69  134 1    
   136   69  135 1    
   137   70   71 1    
   138   71  136 1    
   139   71  137 1    
@<TRIPOS>SUBSTRUCTURE
     1 UNK         1 GROUP             0       ****    0 ROOT    
