@<TRIPOS>MOLECULE
3R137
137   139    1
SMALL
USER_CHARGES


@<TRIPOS>ATOM
      1 CA         26.7662    1.8079   -0.3053 C.3       0 UNK        -0.2020 
      2 C          27.4636    1.3547    0.9762 C.2       0 UNK         0.4855 
      3 O          27.2467    1.9577    2.0254 O.2       0 UNK        -0.5197 
      4 N          28.3154    0.3195    0.9493 N.am      1 UNK        -0.4892 
      5 CA         28.6029   -0.5570   -0.1916 C.3       1 UNK         0.0835 
      6 C6         29.9637   -1.2733   -0.0095 C.3       12 UNK        -0.0855 
      7 S7         30.7068   -1.7237   -1.6114 S.3       12 UNK        -0.2931 
      8 C8         30.7754   -3.5337   -1.4722 C.3       12 UNK         0.0378 
      9 C9         30.9405   -4.1638   -2.8436 C.ar      12 UNK        -0.0802 
     10 C10        32.2106   -4.4280   -3.3642 C.ar      12 UNK        -0.0944 
     11 C11        32.3483   -4.9980   -4.6344 C.ar      12 UNK        -0.0787 
     12 C12        31.2057   -5.3093   -5.3787 C.ar      12 UNK        -0.0862 
     13 C13        29.9322   -5.0365   -4.8706 C.ar      12 UNK        -0.0733 
     14 C14        29.8082   -4.4703   -3.6002 C.ar      12 UNK        -0.0832 
     15 C15        28.6897   -5.3446   -5.6930 C.3       12 UNK         0.0240 
     16 S16        28.5439   -4.2587   -7.1461 S.3       12 UNK        -0.2522 
     17 C17        28.5329   -2.5889   -6.4076 C.3       12 UNK        -0.0967 
     18 CA         27.6322   -1.6422   -7.2339 C.3       5 UNK         0.0660 
     19 N          26.2063   -1.9192   -7.0486 N.am      5 UNK        -0.4015 
     20 C          25.2419   -1.4834   -7.8697 C.2       4 UNK         0.4946 
     21 O          25.4503   -0.8053   -8.8763 O.2       4 UNK        -0.5353 
     22 CA         23.7982   -1.8393   -7.4806 C.3       4 UNK         0.0277 
     23 CB         23.4838   -3.3036   -7.8278 C.3       4 UNK        -0.1981 
     24 N          23.5162   -1.5923   -6.0635 N.am      4 UNK        -0.4209 
     25 C          23.5082   -0.3751   -5.5021 C.2       3 UNK         0.4942 
     26 O          23.7374    0.6658   -6.1166 O.2       3 UNK        -0.5208 
     27 CA         23.2290   -0.3044   -3.9916 C.3       3 UNK         0.0250 
     28 CB         21.7187   -0.3906   -3.7176 C.3       3 UNK        -0.1990 
     29 N          23.9364   -1.3018   -3.1776 N.am      3 UNK        -0.4232 
     30 C          25.2615   -1.4982   -3.1766 C.2       2 UNK         0.4993 
     31 O          26.0401   -0.9870   -3.9852 O.2       2 UNK        -0.5286 
     32 CA         25.8345   -2.4141   -2.0935 C.3       2 UNK         0.0209 
     33 CB         26.0826   -3.8220   -2.6559 C.3       2 UNK        -0.1931 
     34 N          27.0956   -1.8047   -1.6733 N.am      2 UNK        -0.4546 
     35 C          27.4364   -1.5469   -0.4067 C.2       1 UNK         0.5154 
     36 O          26.8506   -2.0220    0.5696 O.2       1 UNK        -0.5181 
     37 C          27.9613   -0.1610   -6.9795 C.2       5 UNK         0.5014 
     38 O          28.7649    0.4008   -7.7225 O.2       5 UNK        -0.5248 
     39 N          27.3098    0.4616   -5.9870 N.am      6 UNK        -0.4434 
     40 CA         27.4019    1.8945   -5.7032 C.3       6 UNK         0.0363 
     41 CB         26.6679    2.2146   -4.3914 C.3       6 UNK        -0.1936 
     42 C          26.8704    2.7595   -6.8586 C.2       6 UNK         0.5081 
     43 O          27.5303    3.7285   -7.2327 O.2       6 UNK        -0.5248 
     44 N          25.7197    2.3761   -7.4327 N.am      7 UNK        -0.4718 
     45 CA         25.1228    3.0217   -8.6072 C.3       7 UNK         0.0273 
     46 CB         23.7059    2.4735   -8.8388 C.3       7 UNK        -0.1935 
     47 C          25.9777    2.8689   -9.8768 C.2       7 UNK         0.5018 
     48 O          26.0968    3.8258  -10.6428 O.2       7 UNK        -0.5186 
     49 N          26.5775    1.6846  -10.0637 N.am      8 UNK        -0.4240 
     50 CA         27.5165    1.3901  -11.1509 C.3       8 UNK         0.0235 
     51 CB         27.6640   -0.1351  -11.2816 C.3       8 UNK        -0.2000 
     52 C          28.9028    2.0404  -10.9715 C.2       8 UNK         0.4941 
     53 O          29.6626    2.0881  -11.9397 O.2       8 UNK        -0.5273 
     54 N          29.2163    2.4926   -9.7472 N.am      9 UNK        -0.4262 
     55 CA         30.5167    2.9810   -9.2719 C.3       9 UNK         0.0264 
     56 CB         30.9161    4.2922   -9.9817 C.3       9 UNK        -0.1955 
     57 C          31.6105    1.8943   -9.3339 C.2       9 UNK         0.5031 
     58 O          32.7646    2.1923   -9.6510 O.2       9 UNK        -0.5390 
     59 N          31.2238    0.6485   -9.0344 N.am      10 UNK        -0.4204 
     60 CA         32.0997   -0.5189   -9.0043 C.3       10 UNK         0.0237 
     61 CB         31.2720   -1.7739   -9.3269 C.3       10 UNK        -0.1985 
     62 C          32.7646   -0.6483   -7.6275 C.2       10 UNK         0.4970 
     63 O          32.1252   -0.3634   -6.6125 O.2       10 UNK        -0.4914 
     64 N          34.0252   -1.1002   -7.6285 N.am      11 UNK        -0.4285 
     65 CA         34.8566   -1.3644   -6.4381 C.3       11 UNK         0.1007 
     66 C          35.2175   -0.1039   -5.5915 C.2       11 UNK         0.5703 
     67 N          35.0721    1.1082   -6.1145 N.am      11 UNK        -0.7361 
     68 O          35.6765   -0.2216   -4.4575 O.2       11 UNK        -0.4986 
     69 C69        34.3152   -2.5403   -5.5729 C.3       12 UNK        -0.0947 
     70 S70        34.1614   -4.0899   -6.5240 S.3       12 UNK        -0.2240 
     71 C71        33.7296   -5.2724   -5.2098 C.3       12 UNK         0.0194 
     72 H72        27.4934    2.0998   -1.0621 H         1 UNK         0.0906 
     73 H73        26.1357    2.6748   -0.1078 H         1 UNK         0.0906 
     74 H74        26.1264    1.0244   -0.7092 H         1 UNK         0.0906 
     75 H75        28.7332    0.0300    1.8224 H         1 UNK         0.3140 
     76 H76        28.6802    0.0786   -1.0761 H         1 UNK         0.1085 
     77 H77        29.8799   -2.1408    0.6486 H         1 UNK         0.0836 
     78 H78        30.6754   -0.6043    0.4777 H         1 UNK         0.0836 
     79 H79        31.5991   -3.8190   -0.8158 H         1 UNK         0.0731 
     80 H80        29.8616   -3.9054   -1.0052 H         1 UNK         0.0731 
     81 H81        33.0899   -4.1788   -2.7858 H         1 UNK         0.1312 
     82 H82        31.3082   -5.7417   -6.3648 H         1 UNK         0.1406 
     83 H83        28.8310   -4.2543   -3.1963 H         1 UNK         0.1631 
     84 H84        27.7854   -5.2593   -5.0898 H         1 UNK         0.0717 
     85 H85        28.7323   -6.3808   -6.0315 H         1 UNK         0.0717 
     86 H86        28.2012   -2.6298   -5.3686 H         1 UNK         0.0934 
     87 H87        29.5666   -2.2359   -6.3823 H         1 UNK         0.0934 
     88 H88        27.8567   -1.8140   -8.2891 H         1 UNK         0.0739 
     89 H89        25.9470   -2.4302   -6.2186 H         1 UNK         0.3093 
     90 H90        23.1345   -1.2015   -8.0688 H         1 UNK         0.0818 
     91 H91        23.6775   -3.5030   -8.8828 H         1 UNK         0.0819 
     92 H92        24.0905   -4.0006   -7.2484 H         1 UNK         0.0819 
     93 H93        22.4351   -3.5380   -7.6439 H         1 UNK         0.0819 
     94 H94        23.3191   -2.3932   -5.4813 H         1 UNK         0.3041 
     95 H95        23.5724    0.6756   -3.6537 H         1 UNK         0.0784 
     96 H96        21.1726    0.3514   -4.3022 H         1 UNK         0.0793 
     97 H97        21.3147   -1.3703   -3.9756 H         1 UNK         0.0793 
     98 H98        21.4936   -0.2000   -2.6681 H         1 UNK         0.0793 
     99 H99        23.3766   -1.7905   -2.4933 H         1 UNK         0.3024 
    100 H100       25.1352   -2.4703   -1.2556 H         1 UNK         0.1171 
    101 H101       25.1388   -4.3270   -2.8652 H         1 UNK         0.0786 
    102 H102       26.6425   -3.7878   -3.5898 H         1 UNK         0.0786 
    103 H103       26.6325   -4.4428   -1.9484 H         1 UNK         0.0786 
    104 H104       27.5999   -1.3527   -2.4262 H         1 UNK         0.2977 
    105 H105       26.7055   -0.0852   -5.3736 H         1 UNK         0.3127 
    106 H106       28.4586    2.1351   -5.5682 H         1 UNK         0.0770 
    107 H107       25.6055    1.9786   -4.4556 H         1 UNK         0.0814 
    108 H108       26.7541    3.2732   -4.1436 H         1 UNK         0.0814 
    109 H109       27.0849    1.6497   -3.5579 H         1 UNK         0.0814 
    110 H110       25.2030    1.5978   -7.0305 H         1 UNK         0.2983 
    111 H111       25.0430    4.0898   -8.3937 H         1 UNK         0.0947 
    112 H112       23.2405    2.9435   -9.7062 H         1 UNK         0.0806 
    113 H113       23.0620    2.6672   -7.9808 H         1 UNK         0.0806 
    114 H114       23.7132    1.3969   -9.0134 H         1 UNK         0.0806 
    115 H115       26.3608    0.9233   -9.4264 H         1 UNK         0.3000 
    116 H116       27.0937    1.7745  -12.0816 H         1 UNK         0.0850 
    117 H117       28.3148   -0.3963  -12.1171 H         1 UNK         0.0810 
    118 H118       26.7009   -0.6145  -11.4584 H         1 UNK         0.0810 
    119 H119       28.0968   -0.5743  -10.3824 H         1 UNK         0.0810 
    120 H120       28.5216    2.3659   -9.0214 H         1 UNK         0.3040 
    121 H121       30.3798    3.2088   -8.2137 H         1 UNK         0.0766 
    122 H122       31.1357    4.1323  -11.0375 H         1 UNK         0.0812 
    123 H123       31.8083    4.7247   -9.5274 H         1 UNK         0.0812 
    124 H124       30.1235    5.0371   -9.9117 H         1 UNK         0.0812 
    125 H125       30.2836    0.5193   -8.6589 H         1 UNK         0.3205 
    126 H126       32.8714   -0.4085   -9.7694 H         1 UNK         0.0754 
    127 H127       31.8961   -2.6687   -9.3178 H         1 UNK         0.0769 
    128 H128       30.8158   -1.7043  -10.3146 H         1 UNK         0.0769 
    129 H129       30.4734   -1.9277   -8.6016 H         1 UNK         0.0769 
    130 H130       34.4676   -1.3015   -8.5134 H         1 UNK         0.2981 
    131 H131       35.8183   -1.6886   -6.8370 H         1 UNK         0.0541 
    132 H132       35.3215    1.9152   -5.5650 H         1 UNK         0.3459 
    133 H133       34.7046    1.2234   -7.0455 H         1 UNK         0.3459 
    134 H134       33.3442   -2.2879   -5.1440 H         1 UNK         0.0612 
    135 H135       34.9814   -2.7376   -4.7315 H         1 UNK         0.0612 
    136 H136       33.7540   -6.2817   -5.6229 H         1 UNK         0.0624 
    137 H137       34.4919   -5.2416   -4.4297 H         1 UNK         0.0624 
@<TRIPOS>BOND
     1    1    2 1    
     2    1   72 1    
     3    1   73 1    
     4    1   74 1    
     5    2    3 2    
     6    2    4 am   BACKBONE|DICT|INTERRES
     7    4    5 1    
     8    4   75 1    
     9    5    6 1    
    10    5   35 1    
    11    5   76 1    
    12    6    7 1    
    13    6   77 1    
    14    6   78 1    
    15    7    8 1    
    16    8    9 1    
    17    8   79 1    
    18    8   80 1    
    19    9   10 ar   
    20    9   14 ar   
    21   10   11 ar   
    22   10   81 1    
    23   11   12 ar   
    24   11   71 1    
    25   12   13 ar   
    26   12   82 1    
    27   13   14 ar   
    28   13   15 1    
    29   14   83 1    
    30   15   16 1    
    31   15   84 1    
    32   15   85 1    
    33   16   17 1    
    34   17   18 1    
    35   17   86 1    
    36   17   87 1    
    37   18   19 1    
    38   18   37 1    
    39   18   88 1    
    40   19   20 am   BACKBONE|DICT|INTERRES
    41   19   89 1    
    42   20   21 2    
    43   20   22 1    
    44   22   23 1    
    45   22   24 1    
    46   22   90 1    
    47   23   91 1    
    48   23   92 1    
    49   23   93 1    
    50   24   25 am   BACKBONE|DICT|INTERRES
    51   24   94 1    
    52   25   26 2    
    53   25   27 1    
    54   27   28 1    
    55   27   29 1    
    56   27   95 1    
    57   28   96 1    
    58   28   97 1    
    59   28   98 1    
    60   29   30 am   BACKBONE|DICT|INTERRES
    61   29   99 1    
    62   30   31 2    
    63   30   32 1    
    64   32   33 1    
    65   32   34 1    
    66   32  100 1    
    67   33  101 1    
    68   33  102 1    
    69   33  103 1    
    70   34   35 am   BACKBONE|DICT|INTERRES
    71   34  104 1    
    72   35   36 2    
    73   37   38 2    
    74   37   39 am   BACKBONE|DICT|INTERRES
    75   39   40 1    
    76   39  105 1    
    77   40   41 1    
    78   40   42 1    
    79   40  106 1    
    80   41  107 1    
    81   41  108 1    
    82   41  109 1    
    83   42   43 2    
    84   42   44 am   BACKBONE|DICT|INTERRES
    85   44   45 1    
    86   44  110 1    
    87   45   46 1    
    88   45   47 1    
    89   45  111 1    
    90   46  112 1    
    91   46  113 1    
    92   46  114 1    
    93   47   48 2    
    94   47   49 am   BACKBONE|DICT|INTERRES
    95   49   50 1    
    96   49  115 1    
    97   50   51 1    
    98   50   52 1    
    99   50  116 1    
   100   51  117 1    
   101   51  118 1    
   102   51  119 1    
   103   52   53 2    
   104   52   54 am   BACKBONE|DICT|INTERRES
   105   54   55 1    
   106   54  120 1    
   107   55   56 1    
   108   55   57 1    
   109   55  121 1    
   110   56  122 1    
   111   56  123 1    
   112   56  124 1    
   113   57   58 2    
   114   57   59 am   BACKBONE|DICT|INTERRES
   115   59   60 1    
   116   59  125 1    
   117   60   61 1    
   118   60   62 1    
   119   60  126 1    
   120   61  127 1    
   121   61  128 1    
   122   61  129 1    
   123   62   63 2    
   124   62   64 am   BACKBONE|DICT|INTERRES
   125   64   65 1    
   126   64  130 1    
   127   65   66 1    
   128   65   69 1    
   129   65  131 1    
   130   66   67 am   BACKBONE|DICT|INTERRES
   131   66   68 2    
   132   67  132 1    
   133   67  133 1    
   134   69   70 1    
   135   69  134 1    
   136   69  135 1    
   137   70   71 1    
   138   71  136 1    
   139   71  137 1    
@<TRIPOS>SUBSTRUCTURE
     1 UNK         1 GROUP             0       ****    0 ROOT    
