@<TRIPOS>MOLECULE
3R137
137   139    1
SMALL
USER_CHARGES


@<TRIPOS>ATOM
      1 CA         25.6667   -0.7086   -0.0150 C.3       0 UNK        -0.2020 
      2 C          26.2828    0.1354   -1.1199 C.2       0 UNK         0.4855 
      3 O          25.7952    1.2322   -1.3910 O.2       0 UNK        -0.5197 
      4 N          27.3448   -0.3771   -1.7550 N.am      1 UNK        -0.4892 
      5 CA         28.1260    0.2238   -2.8455 C.3       1 UNK         0.0835 
      6 C6         29.2858   -0.7100   -3.2820 C.3       12 UNK        -0.0855 
      7 S7         30.3530   -1.2313   -1.8961 S.3       12 UNK        -0.2931 
      8 C8         29.9511   -3.0123   -1.7646 C.3       12 UNK         0.0378 
      9 C9         30.3427   -3.8597   -2.9773 C.ar      12 UNK        -0.0802 
     10 C10        31.4266   -3.5186   -3.7967 C.ar      12 UNK        -0.0944 
     11 C11        31.7919   -4.3282   -4.8746 C.ar      12 UNK        -0.0787 
     12 C12        31.0706   -5.4962   -5.1314 C.ar      12 UNK        -0.0862 
     13 C13        29.9845   -5.8540   -4.3258 C.ar      12 UNK        -0.0733 
     14 C14        29.6282   -5.0331   -3.2503 C.ar      12 UNK        -0.0832 
     15 C15        29.2232   -7.1466   -4.6050 C.3       12 UNK         0.0240 
     16 S16        27.5348   -6.8748   -5.2446 S.3       12 UNK        -0.2522 
     17 C17        27.8325   -5.8559   -6.7366 C.3       12 UNK        -0.0967 
     18 CA         26.8541   -4.6572   -6.9164 C.3       5 UNK         0.0660 
     19 N          26.3766   -4.1125   -5.6411 N.am      5 UNK        -0.4015 
     20 C          25.3850   -3.2270   -5.4829 C.2       4 UNK         0.4946 
     21 O          24.8344   -2.6413   -6.4177 O.2       4 UNK        -0.5353 
     22 CA         24.8944   -2.9958   -4.0433 C.3       4 UNK         0.0277 
     23 CB         25.9618   -3.2911   -2.9692 C.3       4 UNK        -0.1981 
     24 N          24.4283   -1.6176   -3.9043 N.am      4 UNK        -0.4209 
     25 C          23.2169   -1.2456   -3.4673 C.2       3 UNK         0.4942 
     26 O          22.3601   -2.0451   -3.0865 O.2       3 UNK        -0.5208 
     27 CA         22.8917    0.2622   -3.4247 C.3       3 UNK         0.0250 
     28 CB         22.3230    0.6751   -2.0548 C.3       3 UNK        -0.1990 
     29 N          24.0560    1.0991   -3.7187 N.am      3 UNK        -0.4232 
     30 C          24.3882    1.5594   -4.9319 C.2       2 UNK         0.4993 
     31 O          23.7009    1.3978   -5.9395 O.2       2 UNK        -0.5286 
     32 CA         25.7321    2.3025   -5.0457 C.3       2 UNK         0.0209 
     33 CB         25.5135    3.8153   -4.8778 C.3       2 UNK        -0.1931 
     34 N          26.7424    1.8365   -4.0893 N.am      2 UNK        -0.4546 
     35 C          27.2341    0.5896   -4.0520 C.2       1 UNK         0.5154 
     36 O          26.9469   -0.2745   -4.8850 O.2       1 UNK        -0.5181 
     37 C          27.5019   -3.6043   -7.8382 C.2       5 UNK         0.5014 
     38 O          27.4686   -3.7744   -9.0581 O.2       5 UNK        -0.5248 
     39 N          28.1297   -2.5803   -7.2418 N.am      6 UNK        -0.4434 
     40 CA         28.9482   -1.5964   -7.9481 C.3       6 UNK         0.0363 
     41 CB         29.7796   -0.7929   -6.9401 C.3       6 UNK        -0.1936 
     42 C          28.1332   -0.6355   -8.8203 C.2       6 UNK         0.5081 
     43 O          28.5716   -0.3128   -9.9251 O.2       6 UNK        -0.5248 
     44 N          26.9960   -0.1610   -8.2889 N.am      7 UNK        -0.4718 
     45 CA         26.0946    0.8677   -8.8334 C.3       7 UNK         0.0273 
     46 CB         25.4781    0.4367  -10.1782 C.3       7 UNK        -0.1935 
     47 C          26.7363    2.2664   -8.9284 C.2       7 UNK         0.5018 
     48 O          26.1958    3.2217   -8.3721 O.2       7 UNK        -0.5186 
     49 N          27.9038    2.3661   -9.5728 N.am      8 UNK        -0.4240 
     50 CA         28.7252    3.5718   -9.6996 C.3       8 UNK         0.0235 
     51 CB         29.5625    3.4627  -10.9877 C.3       8 UNK        -0.2000 
     52 C          29.5944    3.8062   -8.4467 C.2       8 UNK         0.4941 
     53 O          30.8081    3.9812   -8.5622 O.2       8 UNK        -0.5273 
     54 N          28.9584    3.7904   -7.2674 N.am      9 UNK        -0.4262 
     55 CA         29.5044    3.9873   -5.9160 C.3       9 UNK         0.0264 
     56 CB         30.1200    5.3904   -5.7517 C.3       9 UNK        -0.1955 
     57 C          30.4728    2.8967   -5.4221 C.2       9 UNK         0.5031 
     58 O          30.2948    2.4196   -4.3015 O.2       9 UNK        -0.5390 
     59 N          31.4659    2.5217   -6.2339 N.am      10 UNK        -0.4204 
     60 CA         32.4850    1.5194   -5.9257 C.3       10 UNK         0.0237 
     61 CB         33.6266    2.1613   -5.1167 C.3       10 UNK        -0.1985 
     62 C          33.0080    0.9074   -7.2301 C.2       10 UNK         0.4970 
     63 O          32.9334    1.5496   -8.2792 O.2       10 UNK        -0.4914 
     64 N          33.5167   -0.3271   -7.1412 N.am      11 UNK        -0.4285 
     65 CA         33.9945   -1.1148   -8.2922 C.3       11 UNK         0.1007 
     66 C          35.3417   -0.6310   -8.9065 C.2       11 UNK         0.5703 
     67 N          36.0893    0.2570   -8.2615 N.am      11 UNK        -0.7361 
     68 O          35.7122   -1.0681   -9.9935 O.2       11 UNK        -0.4986 
     69 C69        34.0469   -2.6354   -7.9804 C.3       12 UNK        -0.0947 
     70 S70        32.4646   -3.2951   -7.3527 S.3       12 UNK        -0.2240 
     71 C71        32.9854   -3.9549   -5.7403 C.3       12 UNK         0.0194 
     72 H72        26.3053   -1.5471    0.2622 H         1 UNK         0.0906 
     73 H73        25.5041   -0.1012    0.8749 H         1 UNK         0.0906 
     74 H74        24.7047   -1.1055   -0.3375 H         1 UNK         0.0906 
     75 H75        27.7026   -1.2667   -1.4429 H         1 UNK         0.3140 
     76 H76        28.5683    1.1455   -2.4613 H         1 UNK         0.1085 
     77 H77        28.9080   -1.5950   -3.7964 H         1 UNK         0.0836 
     78 H78        29.9245   -0.1991   -4.0031 H         1 UNK         0.0836 
     79 H79        28.8838   -3.1150   -1.5654 H         1 UNK         0.0731 
     80 H80        30.4650   -3.4140   -0.8904 H         1 UNK         0.0731 
     81 H81        32.0016   -2.6268   -3.5914 H         1 UNK         0.1312 
     82 H82        31.3598   -6.1266   -5.9614 H         1 UNK         0.1406 
     83 H83        28.7994   -5.3202   -2.6172 H         1 UNK         0.1631 
     84 H84        29.1589   -7.7285   -3.6845 H         1 UNK         0.0717 
     85 H85        29.7692   -7.7684   -5.3164 H         1 UNK         0.0717 
     86 H86        28.8659   -5.5096   -6.7200 H         1 UNK         0.0934 
     87 H87        27.7714   -6.5094   -7.6088 H         1 UNK         0.0934 
     88 H88        25.9680   -5.0293   -7.4354 H         1 UNK         0.0739 
     89 H89        26.7546   -4.5664   -4.8222 H         1 UNK         0.3093 
     90 H90        24.0643   -3.6891   -3.8940 H         1 UNK         0.0818 
     91 H91        26.8836   -2.7429   -3.1588 H         1 UNK         0.0819 
     92 H92        25.6050   -3.0175   -1.9767 H         1 UNK         0.0819 
     93 H93        26.2063   -4.3532   -2.9288 H         1 UNK         0.0819 
     94 H94        25.0551   -0.9158   -4.2822 H         1 UNK         0.3041 
     95 H95        22.1168    0.4385   -4.1736 H         1 UNK         0.0784 
     96 H96        21.4179    0.1146   -1.8173 H         1 UNK         0.0793 
     97 H97        23.0366    0.4997   -1.2499 H         1 UNK         0.0793 
     98 H98        22.0579    1.7324   -2.0403 H         1 UNK         0.0793 
     99 H99        24.6916    1.2724   -2.9421 H         1 UNK         0.3024 
    100 H100       26.1209    2.1113   -6.0446 H         1 UNK         0.1171 
    101 H101       24.7744    4.1805   -5.5926 H         1 UNK         0.0786 
    102 H102       25.1508    4.0622   -3.8792 H         1 UNK         0.0786 
    103 H103       26.4267    4.3812   -5.0524 H         1 UNK         0.0786 
    104 H104       26.9696    2.4622   -3.3286 H         1 UNK         0.2977 
    105 H105       28.0772   -2.4998   -6.2369 H         1 UNK         0.3127 
    106 H106       29.6374   -2.1389   -8.5993 H         1 UNK         0.0770 
    107 H107       29.1561   -0.1754   -6.2958 H         1 UNK         0.0814 
    108 H108       30.4482   -0.1192   -7.4721 H         1 UNK         0.0814 
    109 H109       30.3899   -1.4379   -6.3085 H         1 UNK         0.0814 
    110 H110       26.7536   -0.4957   -7.3635 H         1 UNK         0.2983 
    111 H111       25.2744    0.9474   -8.1185 H         1 UNK         0.0947 
    112 H112       24.7375    1.1632  -10.5149 H         1 UNK         0.0806 
    113 H113       24.9716   -0.5244  -10.0888 H         1 UNK         0.0806 
    114 H114       26.2250    0.3485  -10.9675 H         1 UNK         0.0806 
    115 H115       28.2985    1.4991   -9.9335 H         1 UNK         0.3000 
    116 H116       28.0686    4.4386   -9.8010 H         1 UNK         0.0850 
    117 H117       30.1544    4.3648  -11.1487 H         1 UNK         0.0810 
    118 H118       28.9274    3.3336  -11.8643 H         1 UNK         0.0810 
    119 H119       30.2542    2.6200  -10.9471 H         1 UNK         0.0810 
    120 H120       27.9570    3.6340   -7.3110 H         1 UNK         0.3040 
    121 H121       28.6441    3.9399   -5.2494 H         1 UNK         0.0766 
    122 H122       29.4004    6.1703   -6.0005 H         1 UNK         0.0812 
    123 H123       30.9976    5.5300   -6.3835 H         1 UNK         0.0812 
    124 H124       30.4353    5.5577   -4.7209 H         1 UNK         0.0812 
    125 H125       31.5163    2.9339   -7.1667 H         1 UNK         0.3205 
    126 H126       32.0291    0.7213   -5.3355 H         1 UNK         0.0754 
    127 H127       34.4002    1.4310   -4.8767 H         1 UNK         0.0769 
    128 H128       33.2632    2.5663   -4.1719 H         1 UNK         0.0769 
    129 H129       34.1009    2.9743   -5.6681 H         1 UNK         0.0769 
    130 H130       33.5586   -0.7865   -6.2443 H         1 UNK         0.2981 
    131 H131       33.2552   -0.9845   -9.0853 H         1 UNK         0.0541 
    132 H132       36.9564    0.5637   -8.6733 H         1 UNK         0.3459 
    133 H133       35.7931    0.6261   -7.3730 H         1 UNK         0.3459 
    134 H134       34.8445   -2.8470   -7.2661 H         1 UNK         0.0612 
    135 H135       34.2950   -3.1984   -8.8820 H         1 UNK         0.0612 
    136 H136       33.6039   -3.2156   -5.2292 H         1 UNK         0.0624 
    137 H137       33.6161   -4.8312   -5.8973 H         1 UNK         0.0624 
@<TRIPOS>BOND
     1    1    2 1    
     2    1   72 1    
     3    1   73 1    
     4    1   74 1    
     5    2    3 2    
     6    2    4 am   BACKBONE|DICT|INTERRES
     7    4    5 1    
     8    4   75 1    
     9    5    6 1    
    10    5   35 1    
    11    5   76 1    
    12    6    7 1    
    13    6   77 1    
    14    6   78 1    
    15    7    8 1    
    16    8    9 1    
    17    8   79 1    
    18    8   80 1    
    19    9   10 ar   
    20    9   14 ar   
    21   10   11 ar   
    22   10   81 1    
    23   11   12 ar   
    24   11   71 1    
    25   12   13 ar   
    26   12   82 1    
    27   13   14 ar   
    28   13   15 1    
    29   14   83 1    
    30   15   16 1    
    31   15   84 1    
    32   15   85 1    
    33   16   17 1    
    34   17   18 1    
    35   17   86 1    
    36   17   87 1    
    37   18   19 1    
    38   18   37 1    
    39   18   88 1    
    40   19   20 am   BACKBONE|DICT|INTERRES
    41   19   89 1    
    42   20   21 2    
    43   20   22 1    
    44   22   23 1    
    45   22   24 1    
    46   22   90 1    
    47   23   91 1    
    48   23   92 1    
    49   23   93 1    
    50   24   25 am   BACKBONE|DICT|INTERRES
    51   24   94 1    
    52   25   26 2    
    53   25   27 1    
    54   27   28 1    
    55   27   29 1    
    56   27   95 1    
    57   28   96 1    
    58   28   97 1    
    59   28   98 1    
    60   29   30 am   BACKBONE|DICT|INTERRES
    61   29   99 1    
    62   30   31 2    
    63   30   32 1    
    64   32   33 1    
    65   32   34 1    
    66   32  100 1    
    67   33  101 1    
    68   33  102 1    
    69   33  103 1    
    70   34   35 am   BACKBONE|DICT|INTERRES
    71   34  104 1    
    72   35   36 2    
    73   37   38 2    
    74   37   39 am   BACKBONE|DICT|INTERRES
    75   39   40 1    
    76   39  105 1    
    77   40   41 1    
    78   40   42 1    
    79   40  106 1    
    80   41  107 1    
    81   41  108 1    
    82   41  109 1    
    83   42   43 2    
    84   42   44 am   BACKBONE|DICT|INTERRES
    85   44   45 1    
    86   44  110 1    
    87   45   46 1    
    88   45   47 1    
    89   45  111 1    
    90   46  112 1    
    91   46  113 1    
    92   46  114 1    
    93   47   48 2    
    94   47   49 am   BACKBONE|DICT|INTERRES
    95   49   50 1    
    96   49  115 1    
    97   50   51 1    
    98   50   52 1    
    99   50  116 1    
   100   51  117 1    
   101   51  118 1    
   102   51  119 1    
   103   52   53 2    
   104   52   54 am   BACKBONE|DICT|INTERRES
   105   54   55 1    
   106   54  120 1    
   107   55   56 1    
   108   55   57 1    
   109   55  121 1    
   110   56  122 1    
   111   56  123 1    
   112   56  124 1    
   113   57   58 2    
   114   57   59 am   BACKBONE|DICT|INTERRES
   115   59   60 1    
   116   59  125 1    
   117   60   61 1    
   118   60   62 1    
   119   60  126 1    
   120   61  127 1    
   121   61  128 1    
   122   61  129 1    
   123   62   63 2    
   124   62   64 am   BACKBONE|DICT|INTERRES
   125   64   65 1    
   126   64  130 1    
   127   65   66 1    
   128   65   69 1    
   129   65  131 1    
   130   66   67 am   BACKBONE|DICT|INTERRES
   131   66   68 2    
   132   67  132 1    
   133   67  133 1    
   134   69   70 1    
   135   69  134 1    
   136   69  135 1    
   137   70   71 1    
   138   71  136 1    
   139   71  137 1    
@<TRIPOS>SUBSTRUCTURE
     1 UNK         1 GROUP             0       ****    0 ROOT    
