@<TRIPOS>MOLECULE
3R137
137   139    1
SMALL
USER_CHARGES


@<TRIPOS>ATOM
      1 CA         24.9254   -6.3972   -1.7223 C.3       0 UNK        -0.2020 
      2 C          25.1170   -5.0327   -1.0791 C.2       0 UNK         0.4855 
      3 O          24.1533   -4.2772   -0.9466 O.2       0 UNK        -0.5197 
      4 N          26.3569   -4.7047   -0.6930 N.am      1 UNK        -0.4892 
      5 CA         26.7761   -3.4174   -0.1261 C.3       1 UNK         0.0835 
      6 C6         28.2673   -3.4256    0.3137 C.3       12 UNK        -0.0855 
      7 S7         29.4184   -4.2356   -0.8604 S.3       12 UNK        -0.2931 
      8 C8         30.9489   -3.2787   -0.6309 C.3       12 UNK         0.0378 
      9 C9         31.1548   -2.2451   -1.7304 C.ar      12 UNK        -0.0802 
     10 C10        31.9115   -2.5687   -2.8615 C.ar      12 UNK        -0.0944 
     11 C11        32.1772   -1.6140   -3.8489 C.ar      12 UNK        -0.0787 
     12 C12        31.6715   -0.3172   -3.6866 C.ar      12 UNK        -0.0862 
     13 C13        30.8894    0.0137   -2.5761 C.ar      12 UNK        -0.0733 
     14 C14        30.6342   -0.9550   -1.6000 C.ar      12 UNK        -0.0832 
     15 C15        30.3368    1.4258   -2.4213 C.3       12 UNK         0.0240 
     16 S16        29.2942    1.9351   -3.8283 S.3       12 UNK        -0.2522 
     17 C17        28.0168    0.6360   -3.8341 C.3       12 UNK        -0.0967 
     18 CA         28.1125   -0.2764   -5.0861 C.3       5 UNK         0.0660 
     19 N          27.5785   -1.6142   -4.8311 N.am      5 UNK        -0.4015 
     20 C          27.5521   -2.6451   -5.6904 C.2       4 UNK         0.4946 
     21 O          28.0620   -2.6335   -6.8103 O.2       4 UNK        -0.5353 
     22 CA         26.7901   -3.8977   -5.2293 C.3       4 UNK         0.0277 
     23 CB         27.6790   -4.7949   -4.3535 C.3       4 UNK        -0.1981 
     24 N          25.5735   -3.5315   -4.5005 N.am      4 UNK        -0.4209 
     25 C          24.4287   -3.1581   -5.0921 C.2       3 UNK         0.4942 
     26 O          24.2379   -3.2110   -6.3072 O.2       3 UNK        -0.5208 
     27 CA         23.3062   -2.6208   -4.1865 C.3       3 UNK         0.0250 
     28 CB         22.3146   -3.7393   -3.8283 C.3       3 UNK        -0.1990 
     29 N          23.8085   -1.9933   -2.9608 N.am      3 UNK        -0.4232 
     30 C          24.4129   -0.7953   -2.9266 C.2       2 UNK         0.4993 
     31 O          24.5843   -0.0874   -3.9199 O.2       2 UNK        -0.5286 
     32 CA         24.9690   -0.3243   -1.5690 C.3       2 UNK         0.0209 
     33 CB         23.8988    0.4605   -0.7945 C.3       2 UNK        -0.1931 
     34 N          25.4849   -1.4105   -0.7275 N.am      2 UNK        -0.4546 
     35 C          26.4547   -2.2609   -1.0920 C.2       1 UNK         0.5154 
     36 O          27.0321   -2.1975   -2.1765 O.2       1 UNK        -0.5181 
     37 C          27.4475    0.3708   -6.3147 C.2       5 UNK         0.5014 
     38 O          28.1410    0.6725   -7.2865 O.2       5 UNK        -0.5248 
     39 N          26.1163    0.5432   -6.2551 N.am      6 UNK        -0.4434 
     40 CA         25.2565    1.1320   -7.2862 C.3       6 UNK         0.0363 
     41 CB         25.0930    0.1500   -8.4682 C.3       6 UNK        -0.1936 
     42 C          25.7373    2.5389   -7.6968 C.2       6 UNK         0.5081 
     43 O          25.5493    3.4863   -6.9332 O.2       6 UNK        -0.5248 
     44 N          26.3676    2.6468   -8.8734 N.am      7 UNK        -0.4718 
     45 CA         26.9764    3.8711   -9.4008 C.3       7 UNK         0.0273 
     46 CB         27.0821    3.7427  -10.9305 C.3       7 UNK        -0.1935 
     47 C          28.3581    4.1938   -8.7954 C.2       7 UNK         0.5018 
     48 O          28.9189    5.2374   -9.1323 O.2       7 UNK        -0.5186 
     49 N          28.9117    3.2928   -7.9692 N.am      8 UNK        -0.4240 
     50 CA         30.2355    3.3015   -7.3276 C.3       8 UNK         0.0235 
     51 CB         30.4615    4.5573   -6.4640 C.3       8 UNK        -0.2000 
     52 C          31.3987    3.0609   -8.3035 C.2       8 UNK         0.4941 
     53 O          32.3180    2.3128   -7.9706 O.2       8 UNK        -0.5273 
     54 N          31.3351    3.6581   -9.4991 N.am      9 UNK        -0.4262 
     55 CA         32.2045    3.3448  -10.6301 C.3       9 UNK         0.0264 
     56 CB         32.0183    4.4081  -11.7248 C.3       9 UNK        -0.1955 
     57 C          31.8786    1.9408  -11.1663 C.2       9 UNK         0.5031 
     58 O          30.7114    1.6646  -11.4541 O.2       9 UNK        -0.5390 
     59 N          32.9126    1.0960  -11.2879 N.am      10 UNK        -0.4204 
     60 CA         32.8624   -0.2985  -11.7489 C.3       10 UNK         0.0237 
     61 CB         32.5019   -0.3656  -13.2496 C.3       10 UNK        -0.1985 
     62 C          31.9715   -1.2061  -10.8722 C.2       10 UNK         0.4970 
     63 O          31.2319   -2.0379  -11.4016 O.2       10 UNK        -0.4914 
     64 N          32.0710   -1.0415   -9.5459 N.am      11 UNK        -0.4285 
     65 CA         31.3680   -1.8573   -8.5396 C.3       11 UNK         0.1007 
     66 C          31.8239   -3.3460   -8.4449 C.2       11 UNK         0.5703 
     67 N          32.9501   -3.7373   -9.0310 N.am      11 UNK        -0.7361 
     68 O          31.1416   -4.1637   -7.8334 O.2       11 UNK        -0.4986 
     69 C69        31.3658   -1.1645   -7.1521 C.3       12 UNK        -0.0947 
     70 S70        33.0358   -0.8797   -6.4678 S.3       12 UNK        -0.2240 
     71 C71        33.0450   -2.0235   -5.0427 C.3       12 UNK         0.0194 
     72 H72        25.8375   -6.9931   -1.6929 H         1 UNK         0.0906 
     73 H73        24.1430   -6.9500   -1.2031 H         1 UNK         0.0906 
     74 H74        24.6286   -6.2825   -2.7644 H         1 UNK         0.0906 
     75 H75        27.1188   -5.3477   -0.8609 H         1 UNK         0.3140 
     76 H76        26.1785   -3.2644    0.7753 H         1 UNK         0.1085 
     77 H77        28.6081   -2.4113    0.5298 H         1 UNK         0.0836 
     78 H78        28.3527   -3.9636    1.2591 H         1 UNK         0.0836 
     79 H79        31.7891   -3.9748   -0.6227 H         1 UNK         0.0731 
     80 H80        30.9559   -2.7994    0.3491 H         1 UNK         0.0731 
     81 H81        32.3132   -3.5678   -2.9640 H         1 UNK         0.1312 
     82 H82        31.8722    0.4480   -4.4226 H         1 UNK         0.1406 
     83 H83        30.0434   -0.7030   -0.7302 H         1 UNK         0.1631 
     84 H84        31.1696    2.1242   -2.3298 H         1 UNK         0.0717 
     85 H85        29.7548    1.5188   -1.5031 H         1 UNK         0.0717 
     86 H86        28.1314    0.0438   -2.9264 H         1 UNK         0.0934 
     87 H87        27.0388    1.1108   -3.7444 H         1 UNK         0.0934 
     88 H88        29.1674   -0.4229   -5.3209 H         1 UNK         0.0739 
     89 H89        27.2253   -1.7772   -3.8899 H         1 UNK         0.3093 
     90 H90        26.5117   -4.4680   -6.1184 H         1 UNK         0.0818 
     91 H91        28.0174   -4.2788   -3.4560 H         1 UNK         0.0819 
     92 H92        27.1528   -5.6979   -4.0446 H         1 UNK         0.0819 
     93 H93        28.5698   -5.1078   -4.8998 H         1 UNK         0.0819 
     94 H94        25.6668   -3.4037   -3.5020 H         1 UNK         0.3041 
     95 H95        22.7641   -1.8625   -4.7561 H         1 UNK         0.0784 
     96 H96        21.8822   -4.1782   -4.7286 H         1 UNK         0.0793 
     97 H97        22.7933   -4.5456   -3.2728 H         1 UNK         0.0793 
     98 H98        21.4895   -3.3604   -3.2251 H         1 UNK         0.0793 
     99 H99        23.7481   -2.5404   -2.1078 H         1 UNK         0.3024 
    100 H100       25.8009    0.3513   -1.7757 H         1 UNK         0.1171 
    101 H101       23.5138    1.2886   -1.3918 H         1 UNK         0.0786 
    102 H102       24.3049    0.8877    0.1227 H         1 UNK         0.0786 
    103 H103       23.0500   -0.1697   -0.5258 H         1 UNK         0.0786 
    104 H104       25.0234   -1.5499    0.1603 H         1 UNK         0.2977 
    105 H105       25.6328    0.2801   -5.3967 H         1 UNK         0.3127 
    106 H106       24.2742    1.2644   -6.8299 H         1 UNK         0.0770 
    107 H107       26.0463   -0.1106   -8.9293 H         1 UNK         0.0814 
    108 H108       24.4489    0.5681   -9.2430 H         1 UNK         0.0814 
    109 H109       24.6306   -0.7799   -8.1357 H         1 UNK         0.0814 
    110 H110       26.5106    1.8037   -9.4114 H         1 UNK         0.2983 
    111 H111       26.3211    4.7143   -9.1713 H         1 UNK         0.0947 
    112 H112       27.4725    4.6591  -11.3755 H         1 UNK         0.0806 
    113 H113       26.1079    3.5569  -11.3831 H         1 UNK         0.0806 
    114 H114       27.7506    2.9308  -11.2217 H         1 UNK         0.0806 
    115 H115       28.3980    2.4260   -7.8169 H         1 UNK         0.3000 
    116 H116       30.2279    2.4437   -6.6535 H         1 UNK         0.0850 
    117 H117       31.3916    4.4739   -5.9007 H         1 UNK         0.0810 
    118 H118       29.6564    4.6887   -5.7410 H         1 UNK         0.0810 
    119 H119       30.5281    5.4645   -7.0646 H         1 UNK         0.0810 
    120 H120       30.5389    4.2623   -9.6752 H         1 UNK         0.3040 
    121 H121       33.2412    3.3766  -10.2881 H         1 UNK         0.0766 
    122 H122       32.2687    5.4036  -11.3579 H         1 UNK         0.0812 
    123 H123       30.9909    4.4345  -12.0911 H         1 UNK         0.0812 
    124 H124       32.6645    4.2047  -12.5797 H         1 UNK         0.0812 
    125 H125       33.8265    1.4268  -11.0085 H         1 UNK         0.3205 
    126 H126       33.8758   -0.6887  -11.6433 H         1 UNK         0.0754 
    127 H127       32.5911   -1.3844  -13.6289 H         1 UNK         0.0769 
    128 H128       33.1669    0.2591  -13.8458 H         1 UNK         0.0769 
    129 H129       31.4784   -0.0386  -13.4358 H         1 UNK         0.0769 
    130 H130       32.6874   -0.3308   -9.1784 H         1 UNK         0.2981 
    131 H131       30.3248   -1.9015   -8.8590 H         1 UNK         0.0541 
    132 H132       33.2302   -4.7029   -8.9650 H         1 UNK         0.3459 
    133 H133       33.5265   -3.0765   -9.5253 H         1 UNK         0.3459 
    134 H134       30.8706   -0.1954   -7.2300 H         1 UNK         0.0612 
    135 H135       30.7693   -1.7406   -6.4428 H         1 UNK         0.0612 
    136 H136       34.0746   -2.1194   -4.6962 H         1 UNK         0.0624 
    137 H137       32.7441   -3.0125   -5.3924 H         1 UNK         0.0624 
@<TRIPOS>BOND
     1    1    2 1    
     2    1   72 1    
     3    1   73 1    
     4    1   74 1    
     5    2    3 2    
     6    2    4 am   BACKBONE|DICT|INTERRES
     7    4    5 1    
     8    4   75 1    
     9    5    6 1    
    10    5   35 1    
    11    5   76 1    
    12    6    7 1    
    13    6   77 1    
    14    6   78 1    
    15    7    8 1    
    16    8    9 1    
    17    8   79 1    
    18    8   80 1    
    19    9   10 ar   
    20    9   14 ar   
    21   10   11 ar   
    22   10   81 1    
    23   11   12 ar   
    24   11   71 1    
    25   12   13 ar   
    26   12   82 1    
    27   13   14 ar   
    28   13   15 1    
    29   14   83 1    
    30   15   16 1    
    31   15   84 1    
    32   15   85 1    
    33   16   17 1    
    34   17   18 1    
    35   17   86 1    
    36   17   87 1    
    37   18   19 1    
    38   18   37 1    
    39   18   88 1    
    40   19   20 am   BACKBONE|DICT|INTERRES
    41   19   89 1    
    42   20   21 2    
    43   20   22 1    
    44   22   23 1    
    45   22   24 1    
    46   22   90 1    
    47   23   91 1    
    48   23   92 1    
    49   23   93 1    
    50   24   25 am   BACKBONE|DICT|INTERRES
    51   24   94 1    
    52   25   26 2    
    53   25   27 1    
    54   27   28 1    
    55   27   29 1    
    56   27   95 1    
    57   28   96 1    
    58   28   97 1    
    59   28   98 1    
    60   29   30 am   BACKBONE|DICT|INTERRES
    61   29   99 1    
    62   30   31 2    
    63   30   32 1    
    64   32   33 1    
    65   32   34 1    
    66   32  100 1    
    67   33  101 1    
    68   33  102 1    
    69   33  103 1    
    70   34   35 am   BACKBONE|DICT|INTERRES
    71   34  104 1    
    72   35   36 2    
    73   37   38 2    
    74   37   39 am   BACKBONE|DICT|INTERRES
    75   39   40 1    
    76   39  105 1    
    77   40   41 1    
    78   40   42 1    
    79   40  106 1    
    80   41  107 1    
    81   41  108 1    
    82   41  109 1    
    83   42   43 2    
    84   42   44 am   BACKBONE|DICT|INTERRES
    85   44   45 1    
    86   44  110 1    
    87   45   46 1    
    88   45   47 1    
    89   45  111 1    
    90   46  112 1    
    91   46  113 1    
    92   46  114 1    
    93   47   48 2    
    94   47   49 am   BACKBONE|DICT|INTERRES
    95   49   50 1    
    96   49  115 1    
    97   50   51 1    
    98   50   52 1    
    99   50  116 1    
   100   51  117 1    
   101   51  118 1    
   102   51  119 1    
   103   52   53 2    
   104   52   54 am   BACKBONE|DICT|INTERRES
   105   54   55 1    
   106   54  120 1    
   107   55   56 1    
   108   55   57 1    
   109   55  121 1    
   110   56  122 1    
   111   56  123 1    
   112   56  124 1    
   113   57   58 2    
   114   57   59 am   BACKBONE|DICT|INTERRES
   115   59   60 1    
   116   59  125 1    
   117   60   61 1    
   118   60   62 1    
   119   60  126 1    
   120   61  127 1    
   121   61  128 1    
   122   61  129 1    
   123   62   63 2    
   124   62   64 am   BACKBONE|DICT|INTERRES
   125   64   65 1    
   126   64  130 1    
   127   65   66 1    
   128   65   69 1    
   129   65  131 1    
   130   66   67 am   BACKBONE|DICT|INTERRES
   131   66   68 2    
   132   67  132 1    
   133   67  133 1    
   134   69   70 1    
   135   69  134 1    
   136   69  135 1    
   137   70   71 1    
   138   71  136 1    
   139   71  137 1    
@<TRIPOS>SUBSTRUCTURE
     1 UNK         1 GROUP             0       ****    0 ROOT    
