@<TRIPOS>MOLECULE
3R137
137   139    1
SMALL
USER_CHARGES


@<TRIPOS>ATOM
      1 CA         28.2929   -1.2089    2.4124 C.3       0 UNK        -0.2020 
      2 C          28.1308   -2.1872    1.2586 C.2       0 UNK         0.4855 
      3 O          27.6200   -3.2883    1.4629 O.2       0 UNK        -0.5197 
      4 N          28.5507   -1.7829    0.0502 N.am      1 UNK        -0.4892 
      5 CA         28.5433   -2.5709   -1.1981 C.3       1 UNK         0.0835 
      6 C6         29.4198   -3.8557   -1.1294 C.3       12 UNK        -0.0855 
      7 S7         31.1408   -3.5021   -0.6223 S.3       12 UNK        -0.2931 
      8 C8         32.0720   -3.7906   -2.1617 C.3       12 UNK         0.0378 
      9 C9         31.6303   -2.8716   -3.2926 C.ar      12 UNK        -0.0802 
     10 C10        31.8462   -1.4924   -3.2087 C.ar      12 UNK        -0.0944 
     11 C11        31.4530   -0.6482   -4.2517 C.ar      12 UNK        -0.0787 
     12 C12        30.8204   -1.1920   -5.3741 C.ar      12 UNK        -0.0862 
     13 C13        30.6296   -2.5719   -5.4846 C.ar      12 UNK        -0.0733 
     14 C14        31.0330   -3.4059   -4.4381 C.ar      12 UNK        -0.0832 
     15 C15        30.0297   -3.1624   -6.7536 C.3       12 UNK         0.0240 
     16 S16        28.5090   -4.1156   -6.4512 S.3       12 UNK        -0.2522 
     17 C17        27.4220   -2.8761   -5.6767 C.3       12 UNK        -0.0967 
     18 CA         26.7825   -1.9085   -6.7056 C.3       5 UNK         0.0660 
     19 N          25.3327   -1.8158   -6.5420 N.am      5 UNK        -0.4015 
     20 C          24.4886   -1.3902   -7.4902 C.2       4 UNK         0.4946 
     21 O          24.8397   -1.0573   -8.6226 O.2       4 UNK        -0.5353 
     22 CA         23.0050   -1.2925   -7.0952 C.3       4 UNK         0.0277 
     23 CB         22.2989   -2.6413   -7.3066 C.3       4 UNK        -0.1981 
     24 N          22.8116   -0.8467   -5.7113 N.am      4 UNK        -0.4209 
     25 C          23.1396    0.3750   -5.2689 C.2       3 UNK         0.4942 
     26 O          23.6162    1.2542   -5.9839 O.2       3 UNK        -0.5208 
     27 CA         22.9395    0.6587   -3.7729 C.3       3 UNK         0.0250 
     28 CB         21.4871    1.0791   -3.4960 C.3       3 UNK        -0.1990 
     29 N          23.3116   -0.4432   -2.8780 N.am      3 UNK        -0.4232 
     30 C          24.5130   -1.0360   -2.8181 C.2       2 UNK         0.4993 
     31 O          25.4241   -0.8315   -3.6248 O.2       2 UNK        -0.5286 
     32 CA         24.7125   -2.0084   -1.6455 C.3       2 UNK         0.0209 
     33 CB         24.0640   -3.3811   -1.9221 C.3       2 UNK        -0.1931 
     34 N          26.1247   -2.0986   -1.2444 N.am      2 UNK        -0.4546 
     35 C          27.1192   -2.8518   -1.7417 C.2       1 UNK         0.5154 
     36 O          26.9630   -3.7260   -2.5938 O.2       1 UNK        -0.5181 
     37 C          27.4219   -0.5090   -6.6578 C.2       5 UNK         0.5014 
     38 O          28.2836   -0.2076   -7.4835 O.2       5 UNK        -0.5248 
     39 N          26.9614    0.3402   -5.7279 N.am      6 UNK        -0.4434 
     40 CA         27.3665    1.7436   -5.6142 C.3       6 UNK         0.0363 
     41 CB         26.7541    2.3549   -4.3453 C.3       6 UNK        -0.1936 
     42 C          27.0048    2.5798   -6.8564 C.2       6 UNK         0.5081 
     43 O          27.7831    3.4531   -7.2365 O.2       6 UNK        -0.5248 
     44 N          25.8565    2.2825   -7.4828 N.am      7 UNK        -0.4718 
     45 CA         25.4271    2.8639   -8.7574 C.3       7 UNK         0.0273 
     46 CB         23.9467    2.5346   -9.0066 C.3       7 UNK        -0.1935 
     47 C          26.2919    2.4089   -9.9460 C.2       7 UNK         0.5018 
     48 O          26.5611    3.2207  -10.8323 O.2       7 UNK        -0.5186 
     49 N          26.7221    1.1369   -9.9436 N.am      8 UNK        -0.4240 
     50 CA         27.6755    0.5876  -10.9151 C.3       8 UNK         0.0235 
     51 CB         27.6963   -0.9473  -10.8220 C.3       8 UNK        -0.2000 
     52 C          29.0888    1.1724  -10.7362 C.2       8 UNK         0.4941 
     53 O          29.7618    1.4390  -11.7323 O.2       8 UNK        -0.5273 
     54 N          29.4848    1.3873   -9.4726 N.am      9 UNK        -0.4262 
     55 CA         30.6889    2.0861   -9.0111 C.3       9 UNK         0.0264 
     56 CB         30.6425    3.5756   -9.4154 C.3       9 UNK        -0.1955 
     57 C          32.0077    1.3998   -9.4145 C.2       9 UNK         0.5031 
     58 O          32.9971    2.0861   -9.6794 O.2       9 UNK        -0.5390 
     59 N          32.0074    0.0590   -9.4435 N.am      10 UNK        -0.4204 
     60 CA         33.1998   -0.7612   -9.6780 C.3       10 UNK         0.0237 
     61 CB         32.7857   -2.2150   -9.9685 C.3       10 UNK        -0.1985 
     62 C          34.1794   -0.6723   -8.4945 C.2       10 UNK         0.4970 
     63 O          35.3189   -0.2413   -8.6760 O.2       10 UNK        -0.4914 
     64 N          33.6806   -1.0429   -7.3084 N.am      11 UNK        -0.4285 
     65 CA         34.3330   -0.9370   -5.9939 C.3       11 UNK         0.1007 
     66 C          35.7108   -1.6619   -5.9004 C.2       11 UNK         0.5703 
     67 N          36.6085   -1.2367   -5.0201 N.am      11 UNK        -0.7361 
     68 O          35.9533   -2.6573   -6.5811 O.2       11 UNK        -0.4986 
     69 C69        34.3213    0.5195   -5.4271 C.3       12 UNK        -0.0947 
     70 S70        32.7329    1.4112   -5.6223 S.3       12 UNK        -0.2240 
     71 C71        31.7561    0.8429   -4.1889 C.3       12 UNK         0.0194 
     72 H72        28.9234   -1.6456    3.1866 H         1 UNK         0.0906 
     73 H73        27.3220   -0.9818    2.8521 H         1 UNK         0.0906 
     74 H74        28.7490   -0.2717    2.0942 H         1 UNK         0.0906 
     75 H75        28.9627   -0.8635   -0.0360 H         1 UNK         0.3140 
     76 H76        28.9952   -1.9246   -1.9529 H         1 UNK         0.1085 
     77 H77        28.9950   -4.5726   -0.4253 H         1 UNK         0.0836 
     78 H78        29.4342   -4.3649   -2.0946 H         1 UNK         0.0836 
     79 H79        33.1333   -3.6296   -1.9669 H         1 UNK         0.0731 
     80 H80        31.9702   -4.8391   -2.4465 H         1 UNK         0.0731 
     81 H81        32.3327   -1.0822   -2.3341 H         1 UNK         0.1312 
     82 H82        30.5203   -0.5375   -6.1806 H         1 UNK         0.1406 
     83 H83        30.8821   -4.4739   -4.5220 H         1 UNK         0.1631 
     84 H84        30.7655   -3.8230   -7.2138 H         1 UNK         0.0717 
     85 H85        29.8202   -2.3855   -7.4894 H         1 UNK         0.0717 
     86 H86        26.6460   -3.4480   -5.1660 H         1 UNK         0.0934 
     87 H87        27.9525   -2.3573   -4.8754 H         1 UNK         0.0934 
     88 H88        26.9583   -2.2980   -7.7111 H         1 UNK         0.0739 
     89 H89        24.9735   -1.9936   -5.6145 H         1 UNK         0.3093 
     90 H90        22.5384   -0.5563   -7.7536 H         1 UNK         0.0818 
     91 H91        22.4148   -2.9835   -8.3361 H         1 UNK         0.0819 
     92 H92        22.7038   -3.4188   -6.6575 H         1 UNK         0.0819 
     93 H93        21.2290   -2.5640   -7.1122 H         1 UNK         0.0819 
     94 H94        22.4194   -1.5095   -5.0582 H         1 UNK         0.3041 
     95 H95        23.5843    1.5022   -3.5193 H         1 UNK         0.0784 
     96 H96        21.1919    1.9101   -4.1386 H         1 UNK         0.0793 
     97 H97        20.7868    0.2626   -3.6771 H         1 UNK         0.0793 
     98 H98        21.3584    1.4103   -2.4653 H         1 UNK         0.0793 
     99 H99        22.6207   -0.6966   -2.1859 H         1 UNK         0.3024 
    100 H100       24.2050   -1.5769   -0.7807 H         1 UNK         0.1171 
    101 H101       22.9797   -3.2921   -1.9964 H         1 UNK         0.0786 
    102 H102       24.4113   -3.8173   -2.8592 H         1 UNK         0.0786 
    103 H103       24.2754   -4.0899   -1.1215 H         1 UNK         0.0786 
    104 H104       26.4060   -1.4197   -0.5510 H         1 UNK         0.2977 
    105 H105       26.2911   -0.0035   -5.0419 H         1 UNK         0.3127 
    106 H106       28.4537    1.7617   -5.5113 H         1 UNK         0.0770 
    107 H107       25.6657    2.3789   -4.3969 H         1 UNK         0.0814 
    108 H108       27.0965    3.3807   -4.2037 H         1 UNK         0.0814 
    109 H109       27.0360    1.7910   -3.4559 H         1 UNK         0.0814 
    110 H110       25.2154    1.6300   -7.0400 H         1 UNK         0.2983 
    111 H111       25.5242    3.9491   -8.6787 H         1 UNK         0.0947 
    112 H112       23.7758    1.4593   -9.0635 H         1 UNK         0.0806 
    113 H113       23.6016    2.9711   -9.9448 H         1 UNK         0.0806 
    114 H114       23.3140    2.9317   -8.2127 H         1 UNK         0.0806 
    115 H115       26.4144    0.5214   -9.2006 H         1 UNK         0.3000 
    116 H116       27.3290    0.8600  -11.9144 H         1 UNK         0.0850 
    117 H117       28.3527   -1.3729  -11.5821 H         1 UNK         0.0810 
    118 H118       26.7023   -1.3666  -10.9794 H         1 UNK         0.0810 
    119 H119       28.0542   -1.2952   -9.8535 H         1 UNK         0.0810 
    120 H120       28.8846    1.0268   -8.7324 H         1 UNK         0.3040 
    121 H121       30.6518    2.0451   -7.9214 H         1 UNK         0.0766 
    122 H122       30.7441    3.7050  -10.4933 H         1 UNK         0.0812 
    123 H123       31.4497    4.1354   -8.9417 H         1 UNK         0.0812 
    124 H124       29.7053    4.0405   -9.1095 H         1 UNK         0.0812 
    125 H125       31.1424   -0.4196   -9.2404 H         1 UNK         0.3205 
    126 H126       33.7105   -0.3746  -10.5628 H         1 UNK         0.0754 
    127 H127       33.6627   -2.8436  -10.1295 H         1 UNK         0.0769 
    128 H128       32.1757   -2.2772  -10.8701 H         1 UNK         0.0769 
    129 H129       32.2152   -2.6549   -9.1501 H         1 UNK         0.0769 
    130 H130       32.7397   -1.4007   -7.2814 H         1 UNK         0.2981 
    131 H131       33.7100   -1.5410   -5.3388 H         1 UNK         0.0541 
    132 H132       37.4885   -1.7228   -4.9463 H         1 UNK         0.3459 
    133 H133       36.4274   -0.4365   -4.4354 H         1 UNK         0.3459 
    134 H134       35.0852    1.1150   -5.9298 H         1 UNK         0.0612 
    135 H135       34.5791    0.5202   -4.3671 H         1 UNK         0.0612 
    136 H136       30.8143    1.3926   -4.1652 H         1 UNK         0.0624 
    137 H137       32.2896    1.0986   -3.2722 H         1 UNK         0.0624 
@<TRIPOS>BOND
     1    1    2 1    
     2    1   72 1    
     3    1   73 1    
     4    1   74 1    
     5    2    3 2    
     6    2    4 am   BACKBONE|DICT|INTERRES
     7    4    5 1    
     8    4   75 1    
     9    5    6 1    
    10    5   35 1    
    11    5   76 1    
    12    6    7 1    
    13    6   77 1    
    14    6   78 1    
    15    7    8 1    
    16    8    9 1    
    17    8   79 1    
    18    8   80 1    
    19    9   10 ar   
    20    9   14 ar   
    21   10   11 ar   
    22   10   81 1    
    23   11   12 ar   
    24   11   71 1    
    25   12   13 ar   
    26   12   82 1    
    27   13   14 ar   
    28   13   15 1    
    29   14   83 1    
    30   15   16 1    
    31   15   84 1    
    32   15   85 1    
    33   16   17 1    
    34   17   18 1    
    35   17   86 1    
    36   17   87 1    
    37   18   19 1    
    38   18   37 1    
    39   18   88 1    
    40   19   20 am   BACKBONE|DICT|INTERRES
    41   19   89 1    
    42   20   21 2    
    43   20   22 1    
    44   22   23 1    
    45   22   24 1    
    46   22   90 1    
    47   23   91 1    
    48   23   92 1    
    49   23   93 1    
    50   24   25 am   BACKBONE|DICT|INTERRES
    51   24   94 1    
    52   25   26 2    
    53   25   27 1    
    54   27   28 1    
    55   27   29 1    
    56   27   95 1    
    57   28   96 1    
    58   28   97 1    
    59   28   98 1    
    60   29   30 am   BACKBONE|DICT|INTERRES
    61   29   99 1    
    62   30   31 2    
    63   30   32 1    
    64   32   33 1    
    65   32   34 1    
    66   32  100 1    
    67   33  101 1    
    68   33  102 1    
    69   33  103 1    
    70   34   35 am   BACKBONE|DICT|INTERRES
    71   34  104 1    
    72   35   36 2    
    73   37   38 2    
    74   37   39 am   BACKBONE|DICT|INTERRES
    75   39   40 1    
    76   39  105 1    
    77   40   41 1    
    78   40   42 1    
    79   40  106 1    
    80   41  107 1    
    81   41  108 1    
    82   41  109 1    
    83   42   43 2    
    84   42   44 am   BACKBONE|DICT|INTERRES
    85   44   45 1    
    86   44  110 1    
    87   45   46 1    
    88   45   47 1    
    89   45  111 1    
    90   46  112 1    
    91   46  113 1    
    92   46  114 1    
    93   47   48 2    
    94   47   49 am   BACKBONE|DICT|INTERRES
    95   49   50 1    
    96   49  115 1    
    97   50   51 1    
    98   50   52 1    
    99   50  116 1    
   100   51  117 1    
   101   51  118 1    
   102   51  119 1    
   103   52   53 2    
   104   52   54 am   BACKBONE|DICT|INTERRES
   105   54   55 1    
   106   54  120 1    
   107   55   56 1    
   108   55   57 1    
   109   55  121 1    
   110   56  122 1    
   111   56  123 1    
   112   56  124 1    
   113   57   58 2    
   114   57   59 am   BACKBONE|DICT|INTERRES
   115   59   60 1    
   116   59  125 1    
   117   60   61 1    
   118   60   62 1    
   119   60  126 1    
   120   61  127 1    
   121   61  128 1    
   122   61  129 1    
   123   62   63 2    
   124   62   64 am   BACKBONE|DICT|INTERRES
   125   64   65 1    
   126   64  130 1    
   127   65   66 1    
   128   65   69 1    
   129   65  131 1    
   130   66   67 am   BACKBONE|DICT|INTERRES
   131   66   68 2    
   132   67  132 1    
   133   67  133 1    
   134   69   70 1    
   135   69  134 1    
   136   69  135 1    
   137   70   71 1    
   138   71  136 1    
   139   71  137 1    
@<TRIPOS>SUBSTRUCTURE
     1 UNK         1 GROUP             0       ****    0 ROOT    
