@<TRIPOS>MOLECULE
3R137
137   139    1
SMALL
USER_CHARGES


@<TRIPOS>ATOM
      1 CA         29.5712   -1.9647    3.0805 C.3       0 UNK        -0.2020 
      2 C          29.3964   -2.2940    1.6056 C.2       0 UNK         0.4855 
      3 O          30.3611   -2.2269    0.8457 O.2       0 UNK        -0.5197 
      4 N          28.1750   -2.6477    1.1970 N.am      1 UNK        -0.4892 
      5 CA         27.7793   -2.9668   -0.1727 C.3       1 UNK         0.0835 
      6 C6         28.1993   -4.4086   -0.5738 C.3       12 UNK        -0.0855 
      7 S7         27.9833   -4.8026   -2.3500 S.3       12 UNK        -0.2931 
      8 C8         29.6979   -4.9510   -2.9550 C.3       12 UNK         0.0378 
      9 C9         30.2043   -3.6380   -3.5334 C.ar      12 UNK        -0.0802 
     10 C10        30.3692   -3.4863   -4.9136 C.ar      12 UNK        -0.0944 
     11 C11        30.8319   -2.2782   -5.4446 C.ar      12 UNK        -0.0787 
     12 C12        31.1113   -1.2114   -4.5869 C.ar      12 UNK        -0.0862 
     13 C13        30.9186   -1.3409   -3.2092 C.ar      12 UNK        -0.0733 
     14 C14        30.5003   -2.5674   -2.6881 C.ar      12 UNK        -0.0832 
     15 C15        31.1118   -0.1498   -2.2794 C.3       12 UNK         0.0240 
     16 S16        30.0535    1.2821   -2.7012 S.3       12 UNK        -0.2522 
     17 C17        28.4386    0.5398   -3.1407 C.3       12 UNK        -0.0967 
     18 CA         28.1637    0.6573   -4.6655 C.3       5 UNK         0.0660 
     19 N          27.3607   -0.4530   -5.1807 N.am      5 UNK        -0.4015 
     20 C          27.3757   -0.8688   -6.4565 C.2       4 UNK         0.4946 
     21 O          28.1073   -0.3929   -7.3256 O.2       4 UNK        -0.5353 
     22 CA         26.3892   -1.9853   -6.8471 C.3       4 UNK         0.0277 
     23 CB         27.0335   -3.3653   -6.6399 C.3       4 UNK        -0.1981 
     24 N          25.1208   -1.9299   -6.1156 N.am      4 UNK        -0.4209 
     25 C          24.2532   -0.9086   -6.1625 C.2       3 UNK         0.4942 
     26 O          24.3976    0.0757   -6.8844 O.2       3 UNK        -0.5208 
     27 CA         23.0542   -0.9551   -5.1985 C.3       3 UNK         0.0250 
     28 CB         21.8375   -1.5886   -5.8911 C.3       3 UNK        -0.1990 
     29 N          23.3088   -1.6472   -3.9285 N.am      3 UNK        -0.4232 
     30 C          24.3079   -1.3891   -3.0716 C.2       2 UNK         0.4993 
     31 O          25.1885   -0.5490   -3.2832 O.2       2 UNK        -0.5286 
     32 CA         24.3641   -2.2291   -1.7866 C.3       2 UNK         0.0209 
     33 CB         23.5825   -3.5606   -1.8640 C.3       2 UNK        -0.1931 
     34 N          25.7656   -2.4899   -1.4733 N.am      2 UNK        -0.4546 
     35 C          26.2599   -2.7366   -0.2586 C.2       1 UNK         0.5154 
     36 O          25.5724   -2.7850    0.7672 O.2       1 UNK        -0.5181 
     37 C          27.5235    2.0088   -5.0294 C.2       5 UNK         0.5014 
     38 O          28.2433    2.9355   -5.4010 O.2       5 UNK        -0.5248 
     39 N          26.1855    2.0916   -4.9517 N.am      6 UNK        -0.4434 
     40 CA         25.4064    3.2775   -5.3249 C.3       6 UNK         0.0363 
     41 CB         23.9388    3.0900   -4.9094 C.3       6 UNK        -0.1936 
     42 C          25.5122    3.6113   -6.8239 C.2       6 UNK         0.5081 
     43 O          25.6768    4.7793   -7.1763 O.2       6 UNK        -0.5248 
     44 N          25.4473    2.5780   -7.6743 N.am      7 UNK        -0.4718 
     45 CA         25.6565    2.6722   -9.1214 C.3       7 UNK         0.0273 
     46 CB         25.0666    1.4197   -9.7908 C.3       7 UNK        -0.1935 
     47 C          27.1371    2.8281   -9.5135 C.2       7 UNK         0.5018 
     48 O          27.4096    3.2605  -10.6339 O.2       7 UNK        -0.5186 
     49 N          28.0493    2.4548   -8.6021 N.am      8 UNK        -0.4240 
     50 CA         29.5053    2.3751   -8.7597 C.3       8 UNK         0.0235 
     51 CB         30.1239    3.7796   -8.9154 C.3       8 UNK        -0.2000 
     52 C          29.8931    1.4096   -9.8939 C.2       8 UNK         0.4941 
     53 O          30.5734    1.8006  -10.8460 O.2       8 UNK        -0.5273 
     54 N          29.4081    0.1651   -9.7895 N.am      9 UNK        -0.4262 
     55 CA         29.4917   -0.8902  -10.8045 C.3       9 UNK         0.0264 
     56 CB         28.4487   -1.9719  -10.4641 C.3       9 UNK        -0.1955 
     57 C          30.9129   -1.4682  -10.9765 C.2       9 UNK         0.5031 
     58 O          31.1249   -2.6566  -10.7338 O.2       9 UNK        -0.5390 
     59 N          31.8535   -0.6073  -11.3915 N.am      10 UNK        -0.4204 
     60 CA         33.2967   -0.8434  -11.5529 C.3       10 UNK         0.0237 
     61 CB         33.5809   -1.9460  -12.5961 C.3       10 UNK        -0.1985 
     62 C          34.0262   -1.0745  -10.2127 C.2       10 UNK         0.4970 
     63 O          35.0579   -1.7476  -10.1779 O.2       10 UNK        -0.4914 
     64 N          33.4872   -0.4860   -9.1418 N.am      11 UNK        -0.4285 
     65 CA         33.9813   -0.5297   -7.7627 C.3       11 UNK         0.1007 
     66 C          33.3707    0.6338   -6.9401 C.2       11 UNK         0.5703 
     67 N          33.9152    0.9201   -5.7656 N.am      11 UNK        -0.7361 
     68 O          32.4068    1.2769   -7.3515 O.2       11 UNK        -0.4986 
     69 C69        33.8418   -1.9230   -7.0650 C.3       12 UNK        -0.0947 
     70 S70        32.4457   -2.9835   -7.5865 S.3       12 UNK        -0.2240 
     71 C71        30.9838   -2.1148   -6.9476 C.3       12 UNK         0.0194 
     72 H72        28.6390   -2.0693    3.6354 H         1 UNK         0.0906 
     73 H73        30.3087   -2.6303    3.5281 H         1 UNK         0.0906 
     74 H74        29.9222   -0.9396    3.1966 H         1 UNK         0.0906 
     75 H75        27.3917   -2.6518    1.8417 H         1 UNK         0.3140 
     76 H76        28.2563   -2.2447   -0.8374 H         1 UNK         0.1085 
     77 H77        29.2427   -4.5742   -0.3040 H         1 UNK         0.0836 
     78 H78        27.6352   -5.1405    0.0076 H         1 UNK         0.0836 
     79 H79        29.7224   -5.7297   -3.7189 H         1 UNK         0.0731 
     80 H80        30.3631   -5.2928   -2.1611 H         1 UNK         0.0731 
     81 H81        30.1390   -4.3070   -5.5792 H         1 UNK         0.1312 
     82 H82        31.4347   -0.2630   -4.9908 H         1 UNK         0.1406 
     83 H83        30.3768   -2.6847   -1.6223 H         1 UNK         0.1631 
     84 H84        32.1567    0.1613   -2.3096 H         1 UNK         0.0717 
     85 H85        30.9063   -0.4318   -1.2456 H         1 UNK         0.0717 
     86 H86        28.4293   -0.5043   -2.8288 H         1 UNK         0.0934 
     87 H87        27.6523    1.0144   -2.5496 H         1 UNK         0.0934 
     88 H88        29.1209    0.6184   -5.1894 H         1 UNK         0.0739 
     89 H89        26.6640   -0.8286   -4.5465 H         1 UNK         0.3093 
     90 H90        26.1637   -1.8654   -7.9090 H         1 UNK         0.0818 
     91 H91        27.2948   -3.5392   -5.5948 H         1 UNK         0.0819 
     92 H92        26.3677   -4.1675   -6.9585 H         1 UNK         0.0819 
     93 H93        27.9488   -3.4604   -7.2241 H         1 UNK         0.0819 
     94 H94        24.9139   -2.7024   -5.4997 H         1 UNK         0.3041 
     95 H95        22.8018    0.0767   -4.9499 H         1 UNK         0.0784 
     96 H96        21.6117   -1.0770   -6.8281 H         1 UNK         0.0793 
     97 H97        22.0079   -2.6399   -6.1267 H         1 UNK         0.0793 
     98 H98        20.9457   -1.5233   -5.2675 H         1 UNK         0.0793 
     99 H99        22.6463   -2.3659   -3.6742 H         1 UNK         0.3024 
    100 H100       23.9336   -1.6121   -0.9945 H         1 UNK         0.1171 
    101 H101       22.5141   -3.3933   -2.0048 H         1 UNK         0.0786 
    102 H102       23.6858   -4.1323   -0.9415 H         1 UNK         0.0786 
    103 H103       23.9373   -4.1916   -2.6801 H         1 UNK         0.0786 
    104 H104       26.3983   -2.4407   -2.2598 H         1 UNK         0.2977 
    105 H105       25.6691    1.2859   -4.6218 H         1 UNK         0.3127 
    106 H106       25.8108    4.1248   -4.7670 H         1 UNK         0.0770 
    107 H107       23.4577    2.2915   -5.4737 H         1 UNK         0.0814 
    108 H108       23.3672    4.0012   -5.0903 H         1 UNK         0.0814 
    109 H109       23.8494    2.8565   -3.8483 H         1 UNK         0.0814 
    110 H110       25.2221    1.6536   -7.3081 H         1 UNK         0.2983 
    111 H111       25.1218    3.5485   -9.4944 H         1 UNK         0.0947 
    112 H112       25.1664    1.4707  -10.8759 H         1 UNK         0.0806 
    113 H113       24.0051    1.3124   -9.5668 H         1 UNK         0.0806 
    114 H114       25.5715    0.5113   -9.4582 H         1 UNK         0.0806 
    115 H115       27.6969    2.1064   -7.7211 H         1 UNK         0.3000 
    116 H116       29.8879    1.9439   -7.8334 H         1 UNK         0.0850 
    117 H117       31.2129    3.7205   -8.9359 H         1 UNK         0.0810 
    118 H118       29.8494    4.4251   -8.0810 H         1 UNK         0.0810 
    119 H119       29.8058    4.2666   -9.8377 H         1 UNK         0.0810 
    120 H120       28.8925   -0.0674   -8.9403 H         1 UNK         0.3040 
    121 H121       29.2094   -0.4536  -11.7648 H         1 UNK         0.0766 
    122 H122       27.4426   -1.5541  -10.4216 H         1 UNK         0.0812 
    123 H123       28.6564   -2.4412   -9.5021 H         1 UNK         0.0812 
    124 H124       28.4403   -2.7602  -11.2180 H         1 UNK         0.0812 
    125 H125       31.5490    0.3608  -11.4931 H         1 UNK         0.3205 
    126 H126       33.7034    0.0877  -11.9503 H         1 UNK         0.0754 
    127 H127       34.6443   -1.9939  -12.8336 H         1 UNK         0.0769 
    128 H128       33.0502   -1.7565  -13.5291 H         1 UNK         0.0769 
    129 H129       33.2866   -2.9320  -12.2356 H         1 UNK         0.0769 
    130 H130       32.6592    0.0822   -9.2560 H         1 UNK         0.2981 
    131 H131       35.0461   -0.2956   -7.8189 H         1 UNK         0.0541 
    132 H132       33.5334    1.6796   -5.2249 H         1 UNK         0.3459 
    133 H133       34.7099    0.4074   -5.4172 H         1 UNK         0.3459 
    134 H134       34.7426   -2.4985   -7.2820 H         1 UNK         0.0612 
    135 H135       33.8236   -1.8355   -5.9774 H         1 UNK         0.0612 
    136 H136       30.1041   -2.5260   -7.4417 H         1 UNK         0.0624 
    137 H137       31.0138   -1.0635   -7.2325 H         1 UNK         0.0624 
@<TRIPOS>BOND
     1    1    2 1    
     2    1   72 1    
     3    1   73 1    
     4    1   74 1    
     5    2    3 2    
     6    2    4 am   BACKBONE|DICT|INTERRES
     7    4    5 1    
     8    4   75 1    
     9    5    6 1    
    10    5   35 1    
    11    5   76 1    
    12    6    7 1    
    13    6   77 1    
    14    6   78 1    
    15    7    8 1    
    16    8    9 1    
    17    8   79 1    
    18    8   80 1    
    19    9   10 ar   
    20    9   14 ar   
    21   10   11 ar   
    22   10   81 1    
    23   11   12 ar   
    24   11   71 1    
    25   12   13 ar   
    26   12   82 1    
    27   13   14 ar   
    28   13   15 1    
    29   14   83 1    
    30   15   16 1    
    31   15   84 1    
    32   15   85 1    
    33   16   17 1    
    34   17   18 1    
    35   17   86 1    
    36   17   87 1    
    37   18   19 1    
    38   18   37 1    
    39   18   88 1    
    40   19   20 am   BACKBONE|DICT|INTERRES
    41   19   89 1    
    42   20   21 2    
    43   20   22 1    
    44   22   23 1    
    45   22   24 1    
    46   22   90 1    
    47   23   91 1    
    48   23   92 1    
    49   23   93 1    
    50   24   25 am   BACKBONE|DICT|INTERRES
    51   24   94 1    
    52   25   26 2    
    53   25   27 1    
    54   27   28 1    
    55   27   29 1    
    56   27   95 1    
    57   28   96 1    
    58   28   97 1    
    59   28   98 1    
    60   29   30 am   BACKBONE|DICT|INTERRES
    61   29   99 1    
    62   30   31 2    
    63   30   32 1    
    64   32   33 1    
    65   32   34 1    
    66   32  100 1    
    67   33  101 1    
    68   33  102 1    
    69   33  103 1    
    70   34   35 am   BACKBONE|DICT|INTERRES
    71   34  104 1    
    72   35   36 2    
    73   37   38 2    
    74   37   39 am   BACKBONE|DICT|INTERRES
    75   39   40 1    
    76   39  105 1    
    77   40   41 1    
    78   40   42 1    
    79   40  106 1    
    80   41  107 1    
    81   41  108 1    
    82   41  109 1    
    83   42   43 2    
    84   42   44 am   BACKBONE|DICT|INTERRES
    85   44   45 1    
    86   44  110 1    
    87   45   46 1    
    88   45   47 1    
    89   45  111 1    
    90   46  112 1    
    91   46  113 1    
    92   46  114 1    
    93   47   48 2    
    94   47   49 am   BACKBONE|DICT|INTERRES
    95   49   50 1    
    96   49  115 1    
    97   50   51 1    
    98   50   52 1    
    99   50  116 1    
   100   51  117 1    
   101   51  118 1    
   102   51  119 1    
   103   52   53 2    
   104   52   54 am   BACKBONE|DICT|INTERRES
   105   54   55 1    
   106   54  120 1    
   107   55   56 1    
   108   55   57 1    
   109   55  121 1    
   110   56  122 1    
   111   56  123 1    
   112   56  124 1    
   113   57   58 2    
   114   57   59 am   BACKBONE|DICT|INTERRES
   115   59   60 1    
   116   59  125 1    
   117   60   61 1    
   118   60   62 1    
   119   60  126 1    
   120   61  127 1    
   121   61  128 1    
   122   61  129 1    
   123   62   63 2    
   124   62   64 am   BACKBONE|DICT|INTERRES
   125   64   65 1    
   126   64  130 1    
   127   65   66 1    
   128   65   69 1    
   129   65  131 1    
   130   66   67 am   BACKBONE|DICT|INTERRES
   131   66   68 2    
   132   67  132 1    
   133   67  133 1    
   134   69   70 1    
   135   69  134 1    
   136   69  135 1    
   137   70   71 1    
   138   71  136 1    
   139   71  137 1    
@<TRIPOS>SUBSTRUCTURE
     1 UNK         1 GROUP             0       ****    0 ROOT    
