@<TRIPOS>MOLECULE
3R137
137   139    1
SMALL
USER_CHARGES


@<TRIPOS>ATOM
      1 CA         29.5124   -3.6139   -4.9585 C.3       0 UNK        -0.2020 
      2 C          28.5051   -4.3856   -4.1249 C.2       0 UNK         0.4855 
      3 O          27.5725   -4.9633   -4.6816 O.2       0 UNK        -0.5197 
      4 N          28.6887   -4.4063   -2.7978 N.am      1 UNK        -0.4892 
      5 CA         27.7880   -5.0765   -1.8487 C.3       1 UNK         0.0835 
      6 C6         28.4164   -5.2654   -0.4441 C.3       12 UNK        -0.0855 
      7 S7         30.0868   -5.9993   -0.4778 S.3       12 UNK        -0.2931 
      8 C8         31.0921   -4.6405    0.2041 C.3       12 UNK         0.0378 
      9 C9         31.3024   -3.5155   -0.8011 C.ar      12 UNK        -0.0802 
     10 C10        32.3473   -3.6002   -1.7264 C.ar      12 UNK        -0.0944 
     11 C11        32.5884   -2.5541   -2.6201 C.ar      12 UNK        -0.0787 
     12 C12        31.7750   -1.4193   -2.5861 C.ar      12 UNK        -0.0862 
     13 C13        30.7001   -1.3363   -1.6958 C.ar      12 UNK        -0.0733 
     14 C14        30.4788   -2.3826   -0.7930 C.ar      12 UNK        -0.0832 
     15 C15        29.7953   -0.1083   -1.6977 C.3       12 UNK         0.0240 
     16 S16        28.5368   -0.1734   -3.0191 S.3       12 UNK        -0.2522 
     17 C17        29.5671    0.1441   -4.4933 C.3       12 UNK        -0.0967 
     18 CA         28.8014    0.5919   -5.7603 C.3       5 UNK         0.0660 
     19 N          27.6569   -0.2696   -6.0642 N.am      5 UNK        -0.4015 
     20 C          27.1213   -0.4037   -7.2826 C.2       4 UNK         0.4946 
     21 O          27.5674    0.1591   -8.2826 O.2       4 UNK        -0.5353 
     22 CA         25.8563   -1.2669   -7.4036 C.3       4 UNK         0.0277 
     23 CB         26.2353   -2.7270   -7.6930 C.3       4 UNK        -0.1981 
     24 N          24.9746   -1.2091   -6.2312 N.am      4 UNK        -0.4209 
     25 C          24.3988   -0.1039   -5.7398 C.2       3 UNK         0.4942 
     26 O          24.6200    1.0247   -6.1752 O.2       3 UNK        -0.5208 
     27 CA         23.4468   -0.2682   -4.5441 C.3       3 UNK         0.0250 
     28 CB         22.2340   -1.1565   -4.8889 C.3       3 UNK        -0.1990 
     29 N          24.1258   -0.7092   -3.3188 N.am      3 UNK        -0.4232 
     30 C          24.7511   -1.8727   -3.0920 C.2       2 UNK         0.4993 
     31 O          24.8009   -2.7948   -3.9091 O.2       2 UNK        -0.5286 
     32 CA         25.4516   -1.9901   -1.7282 C.3       2 UNK         0.0209 
     33 CB         24.4445   -2.2227   -0.5822 C.3       2 UNK        -0.1931 
     34 N          26.5273   -2.9892   -1.7379 N.am      2 UNK        -0.4546 
     35 C          26.4451   -4.3300   -1.7162 C.2       1 UNK         0.5154 
     36 O          25.4042   -4.9753   -1.5815 O.2       1 UNK        -0.5181 
     37 C          28.4744    2.1020   -5.7803 C.2       5 UNK         0.5014 
     38 O          29.4088    2.9044   -5.7919 O.2       5 UNK        -0.5248 
     39 N          27.1863    2.4718   -5.8281 N.am      6 UNK        -0.4434 
     40 CA         26.7246    3.8469   -6.0163 C.3       6 UNK         0.0363 
     41 CB         25.6705    4.1848   -4.9480 C.3       6 UNK        -0.1936 
     42 C          26.1494    4.0390   -7.4277 C.2       6 UNK         0.5081 
     43 O          26.5105    5.0039   -8.1005 O.2       6 UNK        -0.5248 
     44 N          25.2584    3.1300   -7.8473 N.am      7 UNK        -0.4718 
     45 CA         24.4939    3.2193   -9.0926 C.3       7 UNK         0.0273 
     46 CB         23.2893    2.2659   -9.0186 C.3       7 UNK        -0.1935 
     47 C          25.3302    2.9372  -10.3487 C.2       7 UNK         0.5018 
     48 O          25.2385    3.6963  -11.3142 O.2       7 UNK        -0.5186 
     49 N          26.1172    1.8537  -10.3190 N.am      8 UNK        -0.4240 
     50 CA         26.9752    1.4259  -11.4293 C.3       8 UNK         0.0235 
     51 CB         26.8439   -0.0981  -11.6037 C.3       8 UNK        -0.2000 
     52 C          28.4462    1.8203  -11.2154 C.2       8 UNK         0.4941 
     53 O          29.2409    1.6742  -12.1447 O.2       8 UNK        -0.5273 
     54 N          28.7823    2.2881  -10.0027 N.am      9 UNK        -0.4262 
     55 CA         30.1261    2.5973   -9.5032 C.3       9 UNK         0.0264 
     56 CB         30.7347    3.8020  -10.2526 C.3       9 UNK        -0.1955 
     57 C          31.0454    1.3590   -9.4869 C.2       9 UNK         0.5031 
     58 O          32.2260    1.4643   -9.8265 O.2       9 UNK        -0.5390 
     59 N          30.4805    0.2023   -9.1085 N.am      10 UNK        -0.4204 
     60 CA         31.1923   -1.0703   -8.9711 C.3       10 UNK         0.0237 
     61 CB         30.1716   -2.1896   -8.7075 C.3       10 UNK        -0.1985 
     62 C          32.2465   -1.0310   -7.8486 C.2       10 UNK         0.4970 
     63 O          31.9667   -0.4799   -6.7820 O.2       10 UNK        -0.4914 
     64 N          33.4051   -1.6533   -8.1145 N.am      11 UNK        -0.4285 
     65 CA         34.5884   -1.7829   -7.2401 C.3       11 UNK         0.1007 
     66 C          35.0956   -0.4629   -6.5755 C.2       11 UNK         0.5703 
     67 N          35.9026   -0.5390   -5.5248 N.am      11 UNK        -0.7361 
     68 O          34.8422    0.6392   -7.0577 O.2       11 UNK        -0.4986 
     69 C69        34.5458   -3.0459   -6.3191 C.3       12 UNK        -0.0947 
     70 S70        33.0850   -3.2088   -5.2399 S.3       12 UNK        -0.2240 
     71 C71        33.7176   -2.6444   -3.6334 C.3       12 UNK         0.0194 
     72 H72        29.0064   -2.8477   -5.5430 H         1 UNK         0.0906 
     73 H73        30.2587   -3.1280   -4.3332 H         1 UNK         0.0906 
     74 H74        30.0290   -4.2834   -5.6456 H         1 UNK         0.0906 
     75 H75        29.5079   -3.9698   -2.3946 H         1 UNK         0.3140 
     76 H76        27.5679   -6.0682   -2.2511 H         1 UNK         0.1085 
     77 H77        27.7830   -5.9224    0.1554 H         1 UNK         0.0836 
     78 H78        28.4474   -4.3205    0.1000 H         1 UNK         0.0836 
     79 H79        32.0608   -5.0434    0.5039 H         1 UNK         0.0731 
     80 H80        30.6331   -4.2611    1.1185 H         1 UNK         0.0731 
     81 H81        32.9778   -4.4790   -1.7456 H         1 UNK         0.1312 
     82 H82        31.9724   -0.6097   -3.2746 H         1 UNK         0.1406 
     83 H83        29.6715   -2.3080   -0.0771 H         1 UNK         0.1631 
     84 H84        30.3939    0.7978   -1.8029 H         1 UNK         0.0717 
     85 H85        29.2840   -0.0191   -0.7381 H         1 UNK         0.0717 
     86 H86        30.3462    0.8681   -4.2464 H         1 UNK         0.0934 
     87 H87        30.0993   -0.7769   -4.7278 H         1 UNK         0.0934 
     88 H88        29.5072    0.4670   -6.5812 H         1 UNK         0.0739 
     89 H89        27.2317   -0.7439   -5.2808 H         1 UNK         0.3093 
     90 H90        25.2893   -0.8868   -8.2556 H         1 UNK         0.0818 
     91 H91        25.3522   -3.3305   -7.9034 H         1 UNK         0.0819 
     92 H92        26.8887   -2.7978   -8.5640 H         1 UNK         0.0819 
     93 H93        26.7588   -3.1842   -6.8523 H         1 UNK         0.0819 
     94 H94        24.8108   -2.0753   -5.7236 H         1 UNK         0.3041 
     95 H95        23.0583    0.7275   -4.3231 H         1 UNK         0.0784 
     96 H96        21.7072   -0.7709   -5.7629 H         1 UNK         0.0793 
     97 H97        22.5186   -2.1849   -5.1118 H         1 UNK         0.0793 
     98 H98        21.5190   -1.1816   -4.0665 H         1 UNK         0.0793 
     99 H99        24.1567   -0.0132   -2.5861 H         1 UNK         0.3024 
    100 H100       25.9492   -1.0369   -1.5405 H         1 UNK         0.1171 
    101 H101       24.9525   -2.3610    0.3723 H         1 UNK         0.0786 
    102 H102       23.7758   -1.3686   -0.4704 H         1 UNK         0.0786 
    103 H103       23.8165   -3.0961   -0.7594 H         1 UNK         0.0786 
    104 H104       27.4478   -2.6080   -1.9059 H         1 UNK         0.2977 
    105 H105       26.4672    1.7571   -5.8434 H         1 UNK         0.3127 
    106 H106       27.5513    4.5509   -5.8994 H         1 UNK         0.0770 
    107 H107       24.8070    3.5207   -4.9988 H         1 UNK         0.0814 
    108 H108       25.3051    5.2052   -5.0707 H         1 UNK         0.0814 
    109 H109       26.0897    4.1095   -3.9446 H         1 UNK         0.0814 
    110 H110       25.0029    2.3684   -7.2189 H         1 UNK         0.2983 
    111 H111       24.1097    4.2385   -9.1778 H         1 UNK         0.0947 
    112 H112       22.6867    2.3251   -9.9261 H         1 UNK         0.0806 
    113 H113       22.6382    2.5163   -8.1808 H         1 UNK         0.0806 
    114 H114       23.5995    1.2271   -8.8988 H         1 UNK         0.0806 
    115 H115       26.1654    1.2954   -9.4753 H         1 UNK         0.3000 
    116 H116       26.6498    1.8964  -12.3596 H         1 UNK         0.0850 
    117 H117       27.4222   -0.4426  -12.4621 H         1 UNK         0.0810 
    118 H118       25.8077   -0.3896  -11.7754 H         1 UNK         0.0810 
    119 H119       27.2056   -0.6437  -10.7322 H         1 UNK         0.0810 
    120 H120       28.0442    2.3253   -9.3142 H         1 UNK         0.3040 
    121 H121       30.0026    2.8929   -8.4609 H         1 UNK         0.0766 
    122 H122       30.0641    4.6610  -10.2324 H         1 UNK         0.0812 
    123 H123       30.9485    3.5664  -11.2955 H         1 UNK         0.0812 
    124 H124       31.6730    4.1132   -9.7921 H         1 UNK         0.0812 
    125 H125       29.4950    0.2035   -8.8628 H         1 UNK         0.3205 
    126 H126       31.6909   -1.2719   -9.9215 H         1 UNK         0.0754 
    127 H127       30.6628   -3.1620   -8.6519 H         1 UNK         0.0769 
    128 H128       29.4265   -2.2454   -9.5015 H         1 UNK         0.0769 
    129 H129       29.6467   -2.0378   -7.7645 H         1 UNK         0.0769 
    130 H130       33.5184   -2.0571   -9.0323 H         1 UNK         0.2981 
    131 H131       35.3878   -1.9864   -7.9533 H         1 UNK         0.0541 
    132 H132       36.1738   -1.4281   -5.1383 H         1 UNK         0.3459 
    133 H133       36.2578    0.3137   -5.1217 H         1 UNK         0.3459 
    134 H134       34.5442   -3.9304   -6.9575 H         1 UNK         0.0612 
    135 H135       35.4538   -3.1428   -5.7232 H         1 UNK         0.0612 
    136 H136       34.1819   -1.6648   -3.7438 H         1 UNK         0.0624 
    137 H137       34.4953   -3.3264   -3.2864 H         1 UNK         0.0624 
@<TRIPOS>BOND
     1    1    2 1    
     2    1   72 1    
     3    1   73 1    
     4    1   74 1    
     5    2    3 2    
     6    2    4 am   BACKBONE|DICT|INTERRES
     7    4    5 1    
     8    4   75 1    
     9    5    6 1    
    10    5   35 1    
    11    5   76 1    
    12    6    7 1    
    13    6   77 1    
    14    6   78 1    
    15    7    8 1    
    16    8    9 1    
    17    8   79 1    
    18    8   80 1    
    19    9   10 ar   
    20    9   14 ar   
    21   10   11 ar   
    22   10   81 1    
    23   11   12 ar   
    24   11   71 1    
    25   12   13 ar   
    26   12   82 1    
    27   13   14 ar   
    28   13   15 1    
    29   14   83 1    
    30   15   16 1    
    31   15   84 1    
    32   15   85 1    
    33   16   17 1    
    34   17   18 1    
    35   17   86 1    
    36   17   87 1    
    37   18   19 1    
    38   18   37 1    
    39   18   88 1    
    40   19   20 am   BACKBONE|DICT|INTERRES
    41   19   89 1    
    42   20   21 2    
    43   20   22 1    
    44   22   23 1    
    45   22   24 1    
    46   22   90 1    
    47   23   91 1    
    48   23   92 1    
    49   23   93 1    
    50   24   25 am   BACKBONE|DICT|INTERRES
    51   24   94 1    
    52   25   26 2    
    53   25   27 1    
    54   27   28 1    
    55   27   29 1    
    56   27   95 1    
    57   28   96 1    
    58   28   97 1    
    59   28   98 1    
    60   29   30 am   BACKBONE|DICT|INTERRES
    61   29   99 1    
    62   30   31 2    
    63   30   32 1    
    64   32   33 1    
    65   32   34 1    
    66   32  100 1    
    67   33  101 1    
    68   33  102 1    
    69   33  103 1    
    70   34   35 am   BACKBONE|DICT|INTERRES
    71   34  104 1    
    72   35   36 2    
    73   37   38 2    
    74   37   39 am   BACKBONE|DICT|INTERRES
    75   39   40 1    
    76   39  105 1    
    77   40   41 1    
    78   40   42 1    
    79   40  106 1    
    80   41  107 1    
    81   41  108 1    
    82   41  109 1    
    83   42   43 2    
    84   42   44 am   BACKBONE|DICT|INTERRES
    85   44   45 1    
    86   44  110 1    
    87   45   46 1    
    88   45   47 1    
    89   45  111 1    
    90   46  112 1    
    91   46  113 1    
    92   46  114 1    
    93   47   48 2    
    94   47   49 am   BACKBONE|DICT|INTERRES
    95   49   50 1    
    96   49  115 1    
    97   50   51 1    
    98   50   52 1    
    99   50  116 1    
   100   51  117 1    
   101   51  118 1    
   102   51  119 1    
   103   52   53 2    
   104   52   54 am   BACKBONE|DICT|INTERRES
   105   54   55 1    
   106   54  120 1    
   107   55   56 1    
   108   55   57 1    
   109   55  121 1    
   110   56  122 1    
   111   56  123 1    
   112   56  124 1    
   113   57   58 2    
   114   57   59 am   BACKBONE|DICT|INTERRES
   115   59   60 1    
   116   59  125 1    
   117   60   61 1    
   118   60   62 1    
   119   60  126 1    
   120   61  127 1    
   121   61  128 1    
   122   61  129 1    
   123   62   63 2    
   124   62   64 am   BACKBONE|DICT|INTERRES
   125   64   65 1    
   126   64  130 1    
   127   65   66 1    
   128   65   69 1    
   129   65  131 1    
   130   66   67 am   BACKBONE|DICT|INTERRES
   131   66   68 2    
   132   67  132 1    
   133   67  133 1    
   134   69   70 1    
   135   69  134 1    
   136   69  135 1    
   137   70   71 1    
   138   71  136 1    
   139   71  137 1    
@<TRIPOS>SUBSTRUCTURE
     1 UNK         1 GROUP             0       ****    0 ROOT    
