@<TRIPOS>MOLECULE
3R137
137   139    1
SMALL
USER_CHARGES


@<TRIPOS>ATOM
      1 CA         27.7487   -0.8804    2.2032 C.3       0 UNK        -0.2020 
      2 C          27.9210   -2.1731    1.4099 C.2       0 UNK         0.4855 
      3 O          27.6453   -3.2471    1.9403 O.2       0 UNK        -0.5197 
      4 N          28.3734   -2.1344    0.1481 N.am      1 UNK        -0.4892 
      5 CA         28.7095   -0.9387   -0.6424 C.3       1 UNK         0.0835 
      6 C6         29.6095   -1.2890   -1.8541 C.3       12 UNK        -0.0855 
      7 S7         31.2473   -1.8976   -1.3214 S.3       12 UNK        -0.2931 
      8 C8         31.1171   -3.6928   -1.5999 C.3       12 UNK         0.0378 
      9 C9         31.3980   -4.0634   -3.0487 C.ar      12 UNK        -0.0802 
     10 C10        32.7154   -4.2315   -3.4822 C.ar      12 UNK        -0.0944 
     11 C11        32.9863   -4.5993   -4.8024 C.ar      12 UNK        -0.0787 
     12 C12        31.9260   -4.7796   -5.6963 C.ar      12 UNK        -0.0862 
     13 C13        30.6003   -4.6043   -5.2846 C.ar      12 UNK        -0.0733 
     14 C14        30.3469   -4.2630   -3.9481 C.ar      12 UNK        -0.0832 
     15 C15        29.4857   -4.8164   -6.3141 C.3       12 UNK         0.0240 
     16 S16        27.8333   -4.1893   -5.8467 S.3       12 UNK        -0.2522 
     17 C17        28.1296   -2.3917   -5.7439 C.3       12 UNK        -0.0967 
     18 CA         27.4056   -1.6059   -6.8626 C.3       5 UNK         0.0660 
     19 N          25.9550   -1.8434   -6.8812 N.am      5 UNK        -0.4015 
     20 C          25.1039   -1.3375   -7.7860 C.2       4 UNK         0.4946 
     21 O          25.4509   -0.5818   -8.6923 O.2       4 UNK        -0.5353 
     22 CA         23.6119   -1.6969   -7.6746 C.3       4 UNK         0.0277 
     23 CB         23.1891   -2.5545   -8.8787 C.3       4 UNK        -0.1981 
     24 N          23.2451   -2.4036   -6.4429 N.am      4 UNK        -0.4209 
     25 C          23.0208   -1.8891   -5.2246 C.2       3 UNK         0.4942 
     26 O          22.6640   -2.6076   -4.2903 O.2       3 UNK        -0.5208 
     27 CA         23.1754   -0.3692   -4.9761 C.3       3 UNK         0.0250 
     28 CB         21.8446    0.3615   -5.2209 C.3       3 UNK        -0.1990 
     29 N          23.6118   -0.1076   -3.6015 N.am      3 UNK        -0.4232 
     30 C          24.8165   -0.4416   -3.1215 C.2       2 UNK         0.4993 
     31 O          25.7347   -0.8433   -3.8407 O.2       2 UNK        -0.5286 
     32 CA         25.0177   -0.3031   -1.6011 C.3       2 UNK         0.0209 
     33 CB         23.9141   -1.0368   -0.8146 C.3       2 UNK        -0.1931 
     34 N          26.3103   -0.8511   -1.1855 N.am      2 UNK        -0.4546 
     35 C          27.4551   -0.1619   -1.0979 C.2       1 UNK         0.5154 
     36 O          27.5441    1.0457   -1.3172 O.2       1 UNK        -0.5181 
     37 C          27.7518   -0.1066   -6.7804 C.2       5 UNK         0.5014 
     38 O          28.5750    0.3655   -7.5641 O.2       5 UNK        -0.5248 
     39 N          27.0801    0.6201   -5.8762 N.am      6 UNK        -0.4434 
     40 CA         27.1963    2.0735   -5.7229 C.3       6 UNK         0.0363 
     41 CB         26.4259    2.5236   -4.4730 C.3       6 UNK        -0.1936 
     42 C          26.7071    2.8649   -6.9478 C.2       6 UNK         0.5081 
     43 O          27.3009    3.8916   -7.2747 O.2       6 UNK        -0.5248 
     44 N          25.6465    2.3762   -7.6065 N.am      7 UNK        -0.4718 
     45 CA         25.0697    2.9810   -8.8115 C.3       7 UNK         0.0273 
     46 CB         23.6623    2.4119   -9.0567 C.3       7 UNK        -0.1935 
     47 C          25.9691    2.7839  -10.0425 C.2       7 UNK         0.5018 
     48 O          26.1289    3.7127  -10.8348 O.2       7 UNK        -0.5186 
     49 N          26.5677    1.5908  -10.1558 N.am      8 UNK        -0.4240 
     50 CA         27.5734    1.2442  -11.1624 C.3       8 UNK         0.0235 
     51 CB         27.7106   -0.2871  -11.2094 C.3       8 UNK        -0.2000 
     52 C          28.9487    1.8903  -10.9040 C.2       8 UNK         0.4941 
     53 O          29.7711    1.9206  -11.8201 O.2       8 UNK        -0.5273 
     54 N          29.1792    2.3591   -9.6673 N.am      9 UNK        -0.4262 
     55 CA         30.4432    2.8540   -9.1091 C.3       9 UNK         0.0264 
     56 CB         30.9012    4.1479   -9.8148 C.3       9 UNK        -0.1955 
     57 C          31.5282    1.7589   -9.0740 C.2       9 UNK         0.5031 
     58 O          32.7010    2.0351   -9.3381 O.2       9 UNK        -0.5390 
     59 N          31.1108    0.5263   -8.7570 N.am      10 UNK        -0.4204 
     60 CA         31.9686   -0.6513   -8.6698 C.3       10 UNK         0.0237 
     61 CB         31.0980   -1.9186   -8.6731 C.3       10 UNK        -0.1985 
     62 C          32.8403   -0.5919   -7.4087 C.2       10 UNK         0.4970 
     63 O          32.3106   -0.3750   -6.3169 O.2       10 UNK        -0.4914 
     64 N          34.1494   -0.7997   -7.5938 N.am      11 UNK        -0.4285 
     65 CA         35.1764   -0.8608   -6.5377 C.3       11 UNK         0.1007 
     66 C          35.4035    0.4738   -5.7620 C.2       11 UNK         0.5703 
     67 N          34.9708    1.6188   -6.2782 N.am      11 UNK        -0.7361 
     68 O          36.0152    0.4825   -4.6960 O.2       11 UNK        -0.4986 
     69 C69        34.9983   -2.0905   -5.5998 C.3       12 UNK        -0.0947 
     70 S70        34.9622   -3.6600   -6.5307 S.3       12 UNK        -0.2240 
     71 C71        34.4229   -4.8343   -5.2510 C.3       12 UNK         0.0194 
     72 H72        27.4757   -1.1023    3.2348 H         1 UNK         0.0906 
     73 H73        28.6735   -0.3053    2.2278 H         1 UNK         0.0906 
     74 H74        26.9571   -0.2633    1.7796 H         1 UNK         0.0906 
     75 H75        28.4943   -3.0127   -0.3336 H         1 UNK         0.3140 
     76 H76        29.2769   -0.2552   -0.0078 H         1 UNK         0.1085 
     77 H77        29.1241   -2.0166   -2.5054 H         1 UNK         0.0836 
     78 H78        29.7832   -0.4048   -2.4714 H         1 UNK         0.0836 
     79 H79        31.8364   -4.1969   -0.9525 H         1 UNK         0.0731 
     80 H80        30.1349   -4.0520   -1.2907 H         1 UNK         0.0731 
     81 H81        33.5294   -4.0860   -2.7850 H         1 UNK         0.1312 
     82 H82        32.1381   -5.0607   -6.7191 H         1 UNK         0.1406 
     83 H83        29.3320   -4.1501   -3.5965 H         1 UNK         0.1631 
     84 H84        29.7700   -4.3547   -7.2607 H         1 UNK         0.0717 
     85 H85        29.3991   -5.8862   -6.5081 H         1 UNK         0.0717 
     86 H86        27.8021   -2.0578   -4.7588 H         1 UNK         0.0934 
     87 H87        29.2034   -2.1970   -5.7762 H         1 UNK         0.0934 
     88 H88        27.7896   -1.9633   -7.8206 H         1 UNK         0.0739 
     89 H89        25.5984   -2.4498   -6.1567 H         1 UNK         0.3093 
     90 H90        23.0518   -0.7626   -7.7299 H         1 UNK         0.0818 
     91 H91        22.1181   -2.7577   -8.8658 H         1 UNK         0.0819 
     92 H92        23.4065   -2.0452   -9.8190 H         1 UNK         0.0819 
     93 H93        23.7132   -3.5110   -8.8992 H         1 UNK         0.0819 
     94 H94        23.1260   -3.4013   -6.5452 H         1 UNK         0.3041 
     95 H95        23.9302    0.0501   -5.6402 H         1 UNK         0.0784 
     96 H96        21.4894    0.2117   -6.2408 H         1 UNK         0.0793 
     97 H97        21.0606    0.0049   -4.5513 H         1 UNK         0.0793 
     98 H98        21.9493    1.4365   -5.0720 H         1 UNK         0.0793 
     99 H99        22.8972    0.1914   -2.9543 H         1 UNK         0.3024 
    100 H100       24.9763    0.7611   -1.3566 H         1 UNK         0.1171 
    101 H101       24.1008   -0.9968    0.2590 H         1 UNK         0.0786 
    102 H102       22.9345   -0.5874   -0.9800 H         1 UNK         0.0786 
    103 H103       23.8447   -2.0871   -1.1019 H         1 UNK         0.0786 
    104 H104       26.3435   -1.8459   -1.0162 H         1 UNK         0.2977 
    105 H105       26.4812    0.1273   -5.2150 H         1 UNK         0.3127 
    106 H106       28.2532    2.3074   -5.5779 H         1 UNK         0.0770 
    107 H107       25.3602    2.3062   -4.5524 H         1 UNK         0.0814 
    108 H108       26.5290    3.5982   -4.3162 H         1 UNK         0.0814 
    109 H109       26.8046    2.0314   -3.5795 H         1 UNK         0.0814 
    110 H110       25.2565    1.4961   -7.3057 H         1 UNK         0.2983 
    111 H111       24.9751    4.0559   -8.6403 H         1 UNK         0.0947 
    112 H112       23.1947    2.8949   -9.9157 H         1 UNK         0.0806 
    113 H113       23.0108    2.5782   -8.1987 H         1 UNK         0.0806 
    114 H114       23.6833    1.3413   -9.2610 H         1 UNK         0.0806 
    115 H115       26.3099    0.8567   -9.4980 H         1 UNK         0.3000 
    116 H116       27.2222    1.5924  -12.1360 H         1 UNK         0.0850 
    117 H117       26.7591   -0.7635  -11.4464 H         1 UNK         0.0810 
    118 H118       28.0552   -0.6883  -10.2551 H         1 UNK         0.0810 
    119 H119       28.4275   -0.5945  -11.9719 H         1 UNK         0.0810 
    120 H120       28.4380    2.2308   -8.9905 H         1 UNK         0.3040 
    121 H121       30.2332    3.1038   -8.0679 H         1 UNK         0.0766 
    122 H122       30.1110    4.8986   -9.8162 H         1 UNK         0.0812 
    123 H123       31.1943    3.9655  -10.8489 H         1 UNK         0.0812 
    124 H124       31.7621    4.5843   -9.3069 H         1 UNK         0.0812 
    125 H125       30.1467    0.4154   -8.4433 H         1 UNK         0.3205 
    126 H126       32.6085   -0.6733   -9.5547 H         1 UNK         0.0754 
    127 H127       30.4276   -1.9442   -7.8147 H         1 UNK         0.0769 
    128 H128       31.7159   -2.8167   -8.6306 H         1 UNK         0.0769 
    129 H129       30.4899   -1.9817   -9.5758 H         1 UNK         0.0769 
    130 H130       34.4894   -0.9479   -8.5326 H         1 UNK         0.2981 
    131 H131       36.1154   -1.0102   -7.0715 H         1 UNK         0.0541 
    132 H132       34.4726    1.6290   -7.1551 H         1 UNK         0.3459 
    133 H133       35.1335    2.4782   -5.7781 H         1 UNK         0.3459 
    134 H134       34.0823   -1.9940   -5.0151 H         1 UNK         0.0612 
    135 H135       35.8178   -2.1533   -4.8819 H         1 UNK         0.0612 
    136 H136       35.1120   -4.7791   -4.4068 H         1 UNK         0.0624 
    137 H137       34.5066   -5.8465   -5.6489 H         1 UNK         0.0624 
@<TRIPOS>BOND
     1    1    2 1    
     2    1   72 1    
     3    1   73 1    
     4    1   74 1    
     5    2    3 2    
     6    2    4 am   BACKBONE|DICT|INTERRES
     7    4    5 1    
     8    4   75 1    
     9    5    6 1    
    10    5   35 1    
    11    5   76 1    
    12    6    7 1    
    13    6   77 1    
    14    6   78 1    
    15    7    8 1    
    16    8    9 1    
    17    8   79 1    
    18    8   80 1    
    19    9   10 ar   
    20    9   14 ar   
    21   10   11 ar   
    22   10   81 1    
    23   11   12 ar   
    24   11   71 1    
    25   12   13 ar   
    26   12   82 1    
    27   13   14 ar   
    28   13   15 1    
    29   14   83 1    
    30   15   16 1    
    31   15   84 1    
    32   15   85 1    
    33   16   17 1    
    34   17   18 1    
    35   17   86 1    
    36   17   87 1    
    37   18   19 1    
    38   18   37 1    
    39   18   88 1    
    40   19   20 am   BACKBONE|DICT|INTERRES
    41   19   89 1    
    42   20   21 2    
    43   20   22 1    
    44   22   23 1    
    45   22   24 1    
    46   22   90 1    
    47   23   91 1    
    48   23   92 1    
    49   23   93 1    
    50   24   25 am   BACKBONE|DICT|INTERRES
    51   24   94 1    
    52   25   26 2    
    53   25   27 1    
    54   27   28 1    
    55   27   29 1    
    56   27   95 1    
    57   28   96 1    
    58   28   97 1    
    59   28   98 1    
    60   29   30 am   BACKBONE|DICT|INTERRES
    61   29   99 1    
    62   30   31 2    
    63   30   32 1    
    64   32   33 1    
    65   32   34 1    
    66   32  100 1    
    67   33  101 1    
    68   33  102 1    
    69   33  103 1    
    70   34   35 am   BACKBONE|DICT|INTERRES
    71   34  104 1    
    72   35   36 2    
    73   37   38 2    
    74   37   39 am   BACKBONE|DICT|INTERRES
    75   39   40 1    
    76   39  105 1    
    77   40   41 1    
    78   40   42 1    
    79   40  106 1    
    80   41  107 1    
    81   41  108 1    
    82   41  109 1    
    83   42   43 2    
    84   42   44 am   BACKBONE|DICT|INTERRES
    85   44   45 1    
    86   44  110 1    
    87   45   46 1    
    88   45   47 1    
    89   45  111 1    
    90   46  112 1    
    91   46  113 1    
    92   46  114 1    
    93   47   48 2    
    94   47   49 am   BACKBONE|DICT|INTERRES
    95   49   50 1    
    96   49  115 1    
    97   50   51 1    
    98   50   52 1    
    99   50  116 1    
   100   51  117 1    
   101   51  118 1    
   102   51  119 1    
   103   52   53 2    
   104   52   54 am   BACKBONE|DICT|INTERRES
   105   54   55 1    
   106   54  120 1    
   107   55   56 1    
   108   55   57 1    
   109   55  121 1    
   110   56  122 1    
   111   56  123 1    
   112   56  124 1    
   113   57   58 2    
   114   57   59 am   BACKBONE|DICT|INTERRES
   115   59   60 1    
   116   59  125 1    
   117   60   61 1    
   118   60   62 1    
   119   60  126 1    
   120   61  127 1    
   121   61  128 1    
   122   61  129 1    
   123   62   63 2    
   124   62   64 am   BACKBONE|DICT|INTERRES
   125   64   65 1    
   126   64  130 1    
   127   65   66 1    
   128   65   69 1    
   129   65  131 1    
   130   66   67 am   BACKBONE|DICT|INTERRES
   131   66   68 2    
   132   67  132 1    
   133   67  133 1    
   134   69   70 1    
   135   69  134 1    
   136   69  135 1    
   137   70   71 1    
   138   71  136 1    
   139   71  137 1    
@<TRIPOS>SUBSTRUCTURE
     1 UNK         1 GROUP             0       ****    0 ROOT    
