@<TRIPOS>MOLECULE
3R137
137   139    1
SMALL
USER_CHARGES


@<TRIPOS>ATOM
      1 CA         25.2959   -2.3505   -8.2515 C.3       0 UNK        -0.2020 
      2 C          25.5113   -2.8149   -6.8198 C.2       0 UNK         0.4855 
      3 O          25.3496   -2.0222   -5.8937 O.2       0 UNK        -0.5197 
      4 N          25.8446   -4.1007   -6.6319 N.am      1 UNK        -0.4892 
      5 CA         26.1440   -4.7492   -5.3410 C.3       1 UNK         0.0835 
      6 C6         27.4800   -4.2601   -4.7152 C.3       12 UNK        -0.0855 
      7 S7         28.8985   -4.6729   -5.7883 S.3       12 UNK        -0.2931 
      8 C8         30.1999   -5.0482   -4.5749 C.3       12 UNK         0.0378 
      9 C9         30.7485   -3.7872   -3.9232 C.ar      12 UNK        -0.0802 
     10 C10        31.6984   -3.0092   -4.5954 C.ar      12 UNK        -0.0944 
     11 C11        32.2427   -1.8743   -3.9870 C.ar      12 UNK        -0.0787 
     12 C12        31.8369   -1.5277   -2.6969 C.ar      12 UNK        -0.0862 
     13 C13        30.8604   -2.2721   -2.0304 C.ar      12 UNK        -0.0733 
     14 C14        30.3246   -3.4082   -2.6444 C.ar      12 UNK        -0.0832 
     15 C15        30.3911   -1.8383   -0.6481 C.3       12 UNK         0.0240 
     16 S16        28.7705   -1.0004   -0.6856 S.3       12 UNK        -0.2522 
     17 C17        29.0347    0.3554   -1.8824 C.3       12 UNK        -0.0967 
     18 CA         28.0759    0.2144   -3.0959 C.3       5 UNK         0.0660 
     19 N          26.6784    0.5173   -2.7540 N.am      5 UNK        -0.4015 
     20 C          26.1566    1.6666   -2.3036 C.2       4 UNK         0.4946 
     21 O          26.8006    2.7145   -2.2112 O.2       4 UNK        -0.5353 
     22 CA         24.6755    1.6425   -1.8598 C.3       4 UNK         0.0277 
     23 CB         24.1338    3.0503   -1.5439 C.3       4 UNK        -0.1981 
     24 N          23.7642    0.9930   -2.8100 N.am      4 UNK        -0.4209 
     25 C          23.6791   -0.3232   -3.0421 C.2       3 UNK         0.4942 
     26 O          24.4257   -1.1472   -2.5076 O.2       3 UNK        -0.5208 
     27 CA         22.5839   -0.7825   -4.0213 C.3       3 UNK         0.0250 
     28 CB         22.6048    0.0153   -5.3382 C.3       3 UNK        -0.1990 
     29 N          22.7560   -2.2004   -4.3342 N.am      3 UNK        -0.4232 
     30 C          22.0968   -3.2062   -3.7435 C.2       2 UNK         0.4993 
     31 O          21.2007   -3.0405   -2.9139 O.2       2 UNK        -0.5286 
     32 CA         22.4712   -4.6445   -4.1504 C.3       2 UNK         0.0209 
     33 CB         21.3490   -5.2738   -4.9938 C.3       2 UNK        -0.1931 
     34 N          23.7278   -4.7323   -4.8993 N.am      2 UNK        -0.4546 
     35 C          24.9523   -4.7060   -4.3531 C.2       1 UNK         0.5154 
     36 O          25.1483   -4.6671   -3.1373 O.2       1 UNK        -0.5181 
     37 C          28.5949    0.9759   -4.3332 C.2       5 UNK         0.5014 
     38 O          28.9600    0.3427   -5.3225 O.2       5 UNK        -0.5248 
     39 N          28.5988    2.3138   -4.2762 N.am      6 UNK        -0.4434 
     40 CA         29.1524    3.2290   -5.2836 C.3       6 UNK         0.0363 
     41 CB         29.1504    4.6548   -4.7084 C.3       6 UNK        -0.1936 
     42 C          28.4562    3.1958   -6.6594 C.2       6 UNK         0.5081 
     43 O          28.9628    3.8003   -7.6050 O.2       6 UNK        -0.5248 
     44 N          27.3167    2.5000   -6.7585 N.am      7 UNK        -0.4718 
     45 CA         26.6296    2.1988   -8.0137 C.3       7 UNK         0.0273 
     46 CB         25.2066    1.7166   -7.6940 C.3       7 UNK        -0.1935 
     47 C          27.3615    1.1417   -8.8625 C.2       7 UNK         0.5018 
     48 O          27.1370    1.0949  -10.0729 O.2       7 UNK        -0.5186 
     49 N          28.1879    0.2948   -8.2297 N.am      8 UNK        -0.4240 
     50 CA         28.9530   -0.7573   -8.8966 C.3       8 UNK         0.0235 
     51 CB         29.4290   -1.7720   -7.8470 C.3       8 UNK        -0.2000 
     52 C          30.1538   -0.1656   -9.6433 C.2       8 UNK         0.4941 
     53 O          30.8539    0.6831   -9.0893 O.2       8 UNK        -0.5273 
     54 N          30.4221   -0.6684  -10.8563 N.am      9 UNK        -0.4262 
     55 CA         31.5119   -0.2205  -11.7379 C.3       9 UNK         0.0264 
     56 CB         31.4175   -0.9743  -13.0749 C.3       9 UNK        -0.1955 
     57 C          32.9300   -0.3534  -11.1449 C.2       9 UNK         0.5031 
     58 O          33.8516    0.3038  -11.6306 O.2       9 UNK        -0.5390 
     59 N          33.0761   -1.1846  -10.1054 N.am      10 UNK        -0.4204 
     60 CA         34.2962   -1.3634   -9.3228 C.3       10 UNK         0.0237 
     61 CB         34.1384   -2.6156   -8.4435 C.3       10 UNK        -0.1985 
     62 C          34.6823   -0.1451   -8.4603 C.2       10 UNK         0.4970 
     63 O          35.8584   -0.0384   -8.1085 O.2       10 UNK        -0.4914 
     64 N          33.7267    0.7325   -8.1172 N.am      11 UNK        -0.4285 
     65 CA         33.9672    1.8857   -7.2303 C.3       11 UNK         0.1007 
     66 C          33.0268    3.1071   -7.4338 C.2       11 UNK         0.5703 
     67 N          31.9500    3.0193   -8.1998 N.am      11 UNK        -0.7361 
     68 O          33.2989    4.1790   -6.8976 O.2       11 UNK        -0.4986 
     69 C69        34.0863    1.4739   -5.7361 C.3       12 UNK        -0.0947 
     70 S70        32.6004    0.6323   -5.0902 S.3       12 UNK        -0.2240 
     71 C71        33.2716   -1.0152   -4.7054 C.3       12 UNK         0.0194 
     72 H72        24.2728   -1.9987   -8.3812 H         1 UNK         0.0906 
     73 H73        25.9686   -1.5267   -8.4814 H         1 UNK         0.0906 
     74 H74        25.4773   -3.1471   -8.9726 H         1 UNK         0.0906 
     75 H75        25.9566   -4.6983   -7.4396 H         1 UNK         0.3140 
     76 H76        26.2663   -5.8108   -5.5631 H         1 UNK         0.1085 
     77 H77        27.6411   -4.7240   -3.7409 H         1 UNK         0.0836 
     78 H78        27.4629   -3.1825   -4.5422 H         1 UNK         0.0836 
     79 H79        29.8204   -5.7436   -3.8246 H         1 UNK         0.0731 
     80 H80        31.0106   -5.5706   -5.0850 H         1 UNK         0.0731 
     81 H81        32.0130   -3.2915   -5.5907 H         1 UNK         0.1312 
     82 H82        32.2630   -0.6522   -2.2259 H         1 UNK         0.1406 
     83 H83        29.5777   -3.9937   -2.1256 H         1 UNK         0.1631 
     84 H84        31.1220   -1.1730   -0.1857 H         1 UNK         0.0717 
     85 H85        30.3218   -2.7109    0.0030 H         1 UNK         0.0717 
     86 H86        28.8878    1.3061   -1.3682 H         1 UNK         0.0934 
     87 H87        30.0751    0.3705   -2.2026 H         1 UNK         0.0934 
     88 H88        28.0756   -0.8368   -3.3921 H         1 UNK         0.0739 
     89 H89        26.0438   -0.2786   -2.7809 H         1 UNK         0.3093 
     90 H90        24.6488    1.0693   -0.9304 H         1 UNK         0.0818 
     91 H91        23.1113    3.0092   -1.1680 H         1 UNK         0.0819 
     92 H92        24.7352    3.5400   -0.7765 H         1 UNK         0.0819 
     93 H93        24.1440    3.6929   -2.4251 H         1 UNK         0.0819 
     94 H94        23.1347    1.6062   -3.3073 H         1 UNK         0.3041 
     95 H95        21.6192   -0.6187   -3.5367 H         1 UNK         0.0784 
     96 H96        21.8659   -0.3681   -6.0423 H         1 UNK         0.0793 
     97 H97        22.3732    1.0687   -5.1794 H         1 UNK         0.0793 
     98 H98        23.5789   -0.0399   -5.8201 H         1 UNK         0.0793 
     99 H99        23.5546   -2.4189   -4.9203 H         1 UNK         0.3024 
    100 H100       22.5715   -5.2216   -3.2280 H         1 UNK         0.1171 
    101 H101       21.1970   -4.7357   -5.9304 H         1 UNK         0.0786 
    102 H102       20.4008   -5.2621   -4.4543 H         1 UNK         0.0786 
    103 H103       21.5685   -6.3142   -5.2344 H         1 UNK         0.0786 
    104 H104       23.6590   -4.7662   -5.9065 H         1 UNK         0.2977 
    105 H105       28.1640    2.7348   -3.4566 H         1 UNK         0.3127 
    106 H106       30.1893    2.9314   -5.4553 H         1 UNK         0.0770 
    107 H107       28.1382    4.9990   -4.4927 H         1 UNK         0.0814 
    108 H108       29.5945    5.3619   -5.4106 H         1 UNK         0.0814 
    109 H109       29.7294    4.7116   -3.7866 H         1 UNK         0.0814 
    110 H110       26.9764    2.0384   -5.9281 H         1 UNK         0.2983 
    111 H111       26.5650    3.1155   -8.6040 H         1 UNK         0.0947 
    112 H112       24.6386    1.5412   -8.6087 H         1 UNK         0.0806 
    113 H113       24.6554    2.4498   -7.1049 H         1 UNK         0.0806 
    114 H114       25.2268    0.7785   -7.1393 H         1 UNK         0.0806 
    115 H115       28.3715    0.4234   -7.2383 H         1 UNK         0.3000 
    116 H116       28.2980   -1.2684   -9.6053 H         1 UNK         0.0850 
    117 H117       30.1422   -1.3303   -7.1484 H         1 UNK         0.0810 
    118 H118       28.5911   -2.1509   -7.2624 H         1 UNK         0.0810 
    119 H119       29.9153   -2.6289   -8.3141 H         1 UNK         0.0810 
    120 H120       29.8098   -1.3795  -11.2309 H         1 UNK         0.3040 
    121 H121       31.3517    0.8420  -11.9330 H         1 UNK         0.0766 
    122 H122       30.4582   -0.8010  -13.5631 H         1 UNK         0.0812 
    123 H123       31.5391   -2.0500  -12.9413 H         1 UNK         0.0812 
    124 H124       32.1933   -0.6427  -13.7667 H         1 UNK         0.0812 
    125 H125       32.2568   -1.6799   -9.7872 H         1 UNK         0.3205 
    126 H126       35.1188   -1.5372  -10.0197 H         1 UNK         0.0754 
    127 H127       35.0224   -2.7762   -7.8244 H         1 UNK         0.0769 
    128 H128       34.0048   -3.5111   -9.0508 H         1 UNK         0.0769 
    129 H129       33.2806   -2.5338   -7.7752 H         1 UNK         0.0769 
    130 H130       32.7743    0.6051   -8.4415 H         1 UNK         0.2981 
    131 H131       34.9409    2.2886   -7.5161 H         1 UNK         0.0541 
    132 H132       31.3485    3.8237   -8.2840 H         1 UNK         0.3459 
    133 H133       31.6291    2.1328   -8.5854 H         1 UNK         0.3459 
    134 H134       34.2838    2.3452   -5.1093 H         1 UNK         0.0612 
    135 H135       34.9540    0.8266   -5.6038 H         1 UNK         0.0612 
    136 H136       33.6049   -1.4910   -5.6278 H         1 UNK         0.0624 
    137 H137       34.1525   -0.9094   -4.0707 H         1 UNK         0.0624 
@<TRIPOS>BOND
     1    1    2 1    
     2    1   72 1    
     3    1   73 1    
     4    1   74 1    
     5    2    3 2    
     6    2    4 am   BACKBONE|DICT|INTERRES
     7    4    5 1    
     8    4   75 1    
     9    5    6 1    
    10    5   35 1    
    11    5   76 1    
    12    6    7 1    
    13    6   77 1    
    14    6   78 1    
    15    7    8 1    
    16    8    9 1    
    17    8   79 1    
    18    8   80 1    
    19    9   10 ar   
    20    9   14 ar   
    21   10   11 ar   
    22   10   81 1    
    23   11   12 ar   
    24   11   71 1    
    25   12   13 ar   
    26   12   82 1    
    27   13   14 ar   
    28   13   15 1    
    29   14   83 1    
    30   15   16 1    
    31   15   84 1    
    32   15   85 1    
    33   16   17 1    
    34   17   18 1    
    35   17   86 1    
    36   17   87 1    
    37   18   19 1    
    38   18   37 1    
    39   18   88 1    
    40   19   20 am   BACKBONE|DICT|INTERRES
    41   19   89 1    
    42   20   21 2    
    43   20   22 1    
    44   22   23 1    
    45   22   24 1    
    46   22   90 1    
    47   23   91 1    
    48   23   92 1    
    49   23   93 1    
    50   24   25 am   BACKBONE|DICT|INTERRES
    51   24   94 1    
    52   25   26 2    
    53   25   27 1    
    54   27   28 1    
    55   27   29 1    
    56   27   95 1    
    57   28   96 1    
    58   28   97 1    
    59   28   98 1    
    60   29   30 am   BACKBONE|DICT|INTERRES
    61   29   99 1    
    62   30   31 2    
    63   30   32 1    
    64   32   33 1    
    65   32   34 1    
    66   32  100 1    
    67   33  101 1    
    68   33  102 1    
    69   33  103 1    
    70   34   35 am   BACKBONE|DICT|INTERRES
    71   34  104 1    
    72   35   36 2    
    73   37   38 2    
    74   37   39 am   BACKBONE|DICT|INTERRES
    75   39   40 1    
    76   39  105 1    
    77   40   41 1    
    78   40   42 1    
    79   40  106 1    
    80   41  107 1    
    81   41  108 1    
    82   41  109 1    
    83   42   43 2    
    84   42   44 am   BACKBONE|DICT|INTERRES
    85   44   45 1    
    86   44  110 1    
    87   45   46 1    
    88   45   47 1    
    89   45  111 1    
    90   46  112 1    
    91   46  113 1    
    92   46  114 1    
    93   47   48 2    
    94   47   49 am   BACKBONE|DICT|INTERRES
    95   49   50 1    
    96   49  115 1    
    97   50   51 1    
    98   50   52 1    
    99   50  116 1    
   100   51  117 1    
   101   51  118 1    
   102   51  119 1    
   103   52   53 2    
   104   52   54 am   BACKBONE|DICT|INTERRES
   105   54   55 1    
   106   54  120 1    
   107   55   56 1    
   108   55   57 1    
   109   55  121 1    
   110   56  122 1    
   111   56  123 1    
   112   56  124 1    
   113   57   58 2    
   114   57   59 am   BACKBONE|DICT|INTERRES
   115   59   60 1    
   116   59  125 1    
   117   60   61 1    
   118   60   62 1    
   119   60  126 1    
   120   61  127 1    
   121   61  128 1    
   122   61  129 1    
   123   62   63 2    
   124   62   64 am   BACKBONE|DICT|INTERRES
   125   64   65 1    
   126   64  130 1    
   127   65   66 1    
   128   65   69 1    
   129   65  131 1    
   130   66   67 am   BACKBONE|DICT|INTERRES
   131   66   68 2    
   132   67  132 1    
   133   67  133 1    
   134   69   70 1    
   135   69  134 1    
   136   69  135 1    
   137   70   71 1    
   138   71  136 1    
   139   71  137 1    
@<TRIPOS>SUBSTRUCTURE
     1 UNK         1 GROUP             0       ****    0 ROOT    
