@<TRIPOS>MOLECULE
3R137
137   139    1
SMALL
USER_CHARGES


@<TRIPOS>ATOM
      1 CA         25.6273   -6.3750   -5.2390 C.3       0 UNK        -0.2020 
      2 C          25.5769   -5.5860   -3.9400 C.2       0 UNK         0.4855 
      3 O          24.5187   -5.0673   -3.5827 O.2       0 UNK        -0.5197 
      4 N          26.7162   -5.4819   -3.2408 N.am      1 UNK        -0.4892 
      5 CA         26.9064   -4.7273   -1.9957 C.3       1 UNK         0.0835 
      6 C6         28.3513   -4.8550   -1.4083 C.3       12 UNK        -0.0855 
      7 S7         29.7039   -5.3983   -2.5301 S.3       12 UNK        -0.2931 
      8 C8         29.8767   -4.0582   -3.7541 C.3       12 UNK         0.0378 
      9 C9         30.7388   -2.8947   -3.2863 C.ar      12 UNK        -0.0802 
     10 C10        32.0224   -2.7113   -3.8087 C.ar      12 UNK        -0.0944 
     11 C11        32.7935   -1.6072   -3.4301 C.ar      12 UNK        -0.0787 
     12 C12        32.2715   -0.6835   -2.5173 C.ar      12 UNK        -0.0862 
     13 C13        30.9858   -0.8516   -1.9951 C.ar      12 UNK        -0.0733 
     14 C14        30.2313   -1.9618   -2.3804 C.ar      12 UNK        -0.0832 
     15 C15        30.4144    0.1548   -1.0058 C.3       12 UNK         0.0240 
     16 S16        29.5978    1.5574   -1.8362 S.3       12 UNK        -0.2522 
     17 C17        28.1057    0.7841   -2.5493 C.3       12 UNK        -0.0967 
     18 CA         28.1198    0.8170   -4.1020 C.3       5 UNK         0.0660 
     19 N          27.5550   -0.3990   -4.6973 N.am      5 UNK        -0.4015 
     20 C          27.5592   -0.6893   -6.0065 C.2       4 UNK         0.4946 
     21 O          28.1358   -0.0099   -6.8551 O.2       4 UNK        -0.5353 
     22 CA         26.7268   -1.9012   -6.4626 C.3       4 UNK         0.0277 
     23 CB         27.5321   -3.2116   -6.4553 C.3       4 UNK        -0.1981 
     24 N          25.5048   -2.0644   -5.6738 N.am      4 UNK        -0.4209 
     25 C          24.4368   -1.2617   -5.7636 C.2       3 UNK         0.4942 
     26 O          24.3419   -0.3374   -6.5705 O.2       3 UNK        -0.5208 
     27 CA         23.3062   -1.5071   -4.7508 C.3       3 UNK         0.0250 
     28 CB         22.3838   -2.6392   -5.2293 C.3       3 UNK        -0.1990 
     29 N          23.8113   -1.8119   -3.4080 N.am      3 UNK        -0.4232 
     30 C          24.4555   -0.9264   -2.6330 C.2       2 UNK         0.4993 
     31 O          24.6701    0.2395   -2.9642 O.2       2 UNK        -0.5286 
     32 CA         25.0024   -1.4296   -1.2839 C.3       2 UNK         0.0209 
     33 CB         23.9291   -1.3047   -0.1912 C.3       2 UNK        -0.1931 
     34 N          25.5242   -2.8030   -1.3043 N.am      2 UNK        -0.4546 
     35 C          26.4678   -3.2541   -2.1430 C.2       1 UNK         0.5154 
     36 O          26.9720   -2.5570   -3.0229 O.2       1 UNK        -0.5181 
     37 C          27.4245    2.0869   -4.6373 C.2       5 UNK         0.5014 
     38 O          28.1074    3.0377   -5.0184 O.2       5 UNK        -0.5248 
     39 N          26.0827    2.0645   -4.6854 N.am      6 UNK        -0.4434 
     40 CA         25.2455    3.1298   -5.2437 C.3       6 UNK         0.0363 
     41 CB         23.7697    2.8558   -4.9135 C.3       6 UNK        -0.1936 
     42 C          25.4392    3.3224   -6.7581 C.2       6 UNK         0.5081 
     43 O          25.4489    4.4636   -7.2207 O.2       6 UNK        -0.5248 
     44 N          25.6132    2.2180   -7.5002 N.am      7 UNK        -0.4718 
     45 CA         25.9580    2.2259   -8.9274 C.3       7 UNK         0.0273 
     46 CB         25.7877    0.8124   -9.5059 C.3       7 UNK        -0.1935 
     47 C          27.3808    2.7478   -9.2025 C.2       7 UNK         0.5018 
     48 O          27.6301    3.2750  -10.2875 O.2       7 UNK        -0.5186 
     49 N          28.2822    2.5815   -8.2243 N.am      8 UNK        -0.4240 
     50 CA         29.6771    3.0304   -8.1410 C.3       8 UNK         0.0235 
     51 CB         29.7901    4.5620   -8.2603 C.3       8 UNK        -0.2000 
     52 C          30.6367    2.3220   -9.1080 C.2       8 UNK         0.4941 
     53 O          31.7153    1.9113   -8.6813 O.2       8 UNK        -0.5273 
     54 N          30.2346    2.1601  -10.3756 N.am      9 UNK        -0.4262 
     55 CA         31.0116    1.5256  -11.4472 C.3       9 UNK         0.0264 
     56 CB         30.2138    1.5896  -12.7591 C.3       9 UNK        -0.1955 
     57 C          31.4321    0.0769  -11.1415 C.2       9 UNK         0.5031 
     58 O          32.5181   -0.3377  -11.5479 O.2       9 UNK        -0.5390 
     59 N          30.5919   -0.6477  -10.3905 N.am      10 UNK        -0.4204 
     60 CA         30.8467   -2.0066   -9.9074 C.3       10 UNK         0.0237 
     61 CB         29.5498   -2.5657   -9.3052 C.3       10 UNK        -0.1985 
     62 C          32.0089   -2.1103   -8.8985 C.2       10 UNK         0.4970 
     63 O          32.5863   -3.1903   -8.7706 O.2       10 UNK        -0.4914 
     64 N          32.3432   -1.0041   -8.2197 N.am      11 UNK        -0.4285 
     65 CA         33.5284   -0.8741   -7.3595 C.3       11 UNK         0.1007 
     66 C          34.8287   -0.5435   -8.1595 C.2       11 UNK         0.5703 
     67 N          34.7715   -0.2629   -9.4578 N.am      11 UNK        -0.7361 
     68 O          35.9252   -0.5823   -7.6077 O.2       11 UNK        -0.4986 
     69 C69        33.2302    0.1192   -6.2005 C.3       12 UNK        -0.0947 
     70 S70        34.4477    0.1645   -4.8388 S.3       12 UNK        -0.2240 
     71 C71        34.1976   -1.4318   -3.9941 C.3       12 UNK         0.0194 
     72 H72        26.6287   -6.7491   -5.4512 H         1 UNK         0.0906 
     73 H73        24.9499   -7.2269   -5.1862 H         1 UNK         0.0906 
     74 H74        25.3176   -5.7444   -6.0720 H         1 UNK         0.0906 
     75 H75        27.5573   -5.9240   -3.5861 H         1 UNK         0.3140 
     76 H76        26.2257   -5.1832   -1.2733 H         1 UNK         0.1085 
     77 H77        28.6652   -3.9538   -0.8802 H         1 UNK         0.0836 
     78 H78        28.3191   -5.6123   -0.6233 H         1 UNK         0.0836 
     79 H79        28.8984   -3.6851   -4.0291 H         1 UNK         0.0731 
     80 H80        30.2943   -4.4855   -4.6671 H         1 UNK         0.0731 
     81 H81        32.4187   -3.4252   -4.5178 H         1 UNK         0.1312 
     82 H82        32.8642    0.1714   -2.2211 H         1 UNK         0.1406 
     83 H83        29.2391   -2.0947   -1.9822 H         1 UNK         0.1631 
     84 H84        31.2167    0.5424   -0.3762 H         1 UNK         0.0717 
     85 H85        29.7090   -0.3297   -0.3288 H         1 UNK         0.0717 
     86 H86        28.0347   -0.2381   -2.1855 H         1 UNK         0.0934 
     87 H87        27.2244    1.2798   -2.1365 H         1 UNK         0.0934 
     88 H88        29.1578    0.8484   -4.4421 H         1 UNK         0.0739 
     89 H89        27.1371   -1.0737   -4.0602 H         1 UNK         0.3093 
     90 H90        26.4386   -1.7043   -7.4971 H         1 UNK         0.0818 
     91 H91        27.3579   -3.7896   -5.5516 H         1 UNK         0.0819 
     92 H92        27.2469   -3.8438   -7.2963 H         1 UNK         0.0819 
     93 H93        28.6060   -3.0376   -6.5302 H         1 UNK         0.0819 
     94 H94        25.5239   -2.7541   -4.9352 H         1 UNK         0.3041 
     95 H95        22.7151   -0.5907   -4.6882 H         1 UNK         0.0784 
     96 H96        21.9770   -2.4185   -6.2172 H         1 UNK         0.0793 
     97 H97        22.9113   -3.5914   -5.2992 H         1 UNK         0.0793 
     98 H98        21.5384   -2.7736   -4.5543 H         1 UNK         0.0793 
     99 H99        23.7176   -2.7662   -3.0844 H         1 UNK         0.3024 
    100 H100       25.8333   -0.7741   -1.0157 H         1 UNK         0.1171 
    101 H101       23.5381   -0.2871   -0.1425 H         1 UNK         0.0786 
    102 H102       24.3344   -1.5398    0.7932 H         1 UNK         0.0786 
    103 H103       23.0846   -1.9699   -0.3756 H         1 UNK         0.0786 
    104 H104       25.1359   -3.4386   -0.6219 H         1 UNK         0.2977 
    105 H105       25.5923    1.2731   -4.2738 H         1 UNK         0.3127 
    106 H106       25.5336    4.0630   -4.7552 H         1 UNK         0.0770 
    107 H107       23.4231    1.9215   -5.3555 H         1 UNK         0.0814 
    108 H108       23.1302    3.6538   -5.2931 H         1 UNK         0.0814 
    109 H109       23.6090    2.7952   -3.8369 H         1 UNK         0.0814 
    110 H110       25.4991    1.3113   -7.0583 H         1 UNK         0.2983 
    111 H111       25.2599    2.8923   -9.4386 H         1 UNK         0.0947 
    112 H112       25.9608    0.8094  -10.5829 H         1 UNK         0.0806 
    113 H113       24.7800    0.4319   -9.3378 H         1 UNK         0.0806 
    114 H114       26.4911    0.1080   -9.0624 H         1 UNK         0.0806 
    115 H115       27.9800    2.0286   -7.4290 H         1 UNK         0.3000 
    116 H116       30.0011    2.7593   -7.1346 H         1 UNK         0.0850 
    117 H117       30.8174    4.8893   -8.0950 H         1 UNK         0.0810 
    118 H118       29.1671    5.0603   -7.5172 H         1 UNK         0.0810 
    119 H119       29.4902    4.9209   -9.2452 H         1 UNK         0.0810 
    120 H120       29.3245    2.5445  -10.6202 H         1 UNK         0.3040 
    121 H121       31.9263    2.1085  -11.5726 H         1 UNK         0.0766 
    122 H122       29.9960    2.6200  -13.0409 H         1 UNK         0.0812 
    123 H123       29.2658    1.0557  -12.6822 H         1 UNK         0.0812 
    124 H124       30.7755    1.1423  -13.5806 H         1 UNK         0.0812 
    125 H125       29.7315   -0.2124  -10.0910 H         1 UNK         0.3205 
    126 H126       31.1160   -2.6215  -10.7688 H         1 UNK         0.0754 
    127 H127       29.7019   -3.5649   -8.8945 H         1 UNK         0.0769 
    128 H128       28.7630   -2.6410  -10.0560 H         1 UNK         0.0769 
    129 H129       29.1843   -1.9278   -8.5013 H         1 UNK         0.0769 
    130 H130       31.8586   -0.1351   -8.4146 H         1 UNK         0.2981 
    131 H131       33.7068   -1.8485   -6.9031 H         1 UNK         0.0541 
    132 H132       33.8943   -0.2660   -9.9629 H         1 UNK         0.3459 
    133 H133       35.6282   -0.0689   -9.9509 H         1 UNK         0.3459 
    134 H134       32.2565   -0.1056   -5.7616 H         1 UNK         0.0612 
    135 H135       33.1454    1.1330   -6.5935 H         1 UNK         0.0612 
    136 H136       34.9123   -1.5025   -3.1733 H         1 UNK         0.0624 
    137 H137       34.4480   -2.2396   -4.6828 H         1 UNK         0.0624 
@<TRIPOS>BOND
     1    1    2 1    
     2    1   72 1    
     3    1   73 1    
     4    1   74 1    
     5    2    3 2    
     6    2    4 am   BACKBONE|DICT|INTERRES
     7    4    5 1    
     8    4   75 1    
     9    5    6 1    
    10    5   35 1    
    11    5   76 1    
    12    6    7 1    
    13    6   77 1    
    14    6   78 1    
    15    7    8 1    
    16    8    9 1    
    17    8   79 1    
    18    8   80 1    
    19    9   10 ar   
    20    9   14 ar   
    21   10   11 ar   
    22   10   81 1    
    23   11   12 ar   
    24   11   71 1    
    25   12   13 ar   
    26   12   82 1    
    27   13   14 ar   
    28   13   15 1    
    29   14   83 1    
    30   15   16 1    
    31   15   84 1    
    32   15   85 1    
    33   16   17 1    
    34   17   18 1    
    35   17   86 1    
    36   17   87 1    
    37   18   19 1    
    38   18   37 1    
    39   18   88 1    
    40   19   20 am   BACKBONE|DICT|INTERRES
    41   19   89 1    
    42   20   21 2    
    43   20   22 1    
    44   22   23 1    
    45   22   24 1    
    46   22   90 1    
    47   23   91 1    
    48   23   92 1    
    49   23   93 1    
    50   24   25 am   BACKBONE|DICT|INTERRES
    51   24   94 1    
    52   25   26 2    
    53   25   27 1    
    54   27   28 1    
    55   27   29 1    
    56   27   95 1    
    57   28   96 1    
    58   28   97 1    
    59   28   98 1    
    60   29   30 am   BACKBONE|DICT|INTERRES
    61   29   99 1    
    62   30   31 2    
    63   30   32 1    
    64   32   33 1    
    65   32   34 1    
    66   32  100 1    
    67   33  101 1    
    68   33  102 1    
    69   33  103 1    
    70   34   35 am   BACKBONE|DICT|INTERRES
    71   34  104 1    
    72   35   36 2    
    73   37   38 2    
    74   37   39 am   BACKBONE|DICT|INTERRES
    75   39   40 1    
    76   39  105 1    
    77   40   41 1    
    78   40   42 1    
    79   40  106 1    
    80   41  107 1    
    81   41  108 1    
    82   41  109 1    
    83   42   43 2    
    84   42   44 am   BACKBONE|DICT|INTERRES
    85   44   45 1    
    86   44  110 1    
    87   45   46 1    
    88   45   47 1    
    89   45  111 1    
    90   46  112 1    
    91   46  113 1    
    92   46  114 1    
    93   47   48 2    
    94   47   49 am   BACKBONE|DICT|INTERRES
    95   49   50 1    
    96   49  115 1    
    97   50   51 1    
    98   50   52 1    
    99   50  116 1    
   100   51  117 1    
   101   51  118 1    
   102   51  119 1    
   103   52   53 2    
   104   52   54 am   BACKBONE|DICT|INTERRES
   105   54   55 1    
   106   54  120 1    
   107   55   56 1    
   108   55   57 1    
   109   55  121 1    
   110   56  122 1    
   111   56  123 1    
   112   56  124 1    
   113   57   58 2    
   114   57   59 am   BACKBONE|DICT|INTERRES
   115   59   60 1    
   116   59  125 1    
   117   60   61 1    
   118   60   62 1    
   119   60  126 1    
   120   61  127 1    
   121   61  128 1    
   122   61  129 1    
   123   62   63 2    
   124   62   64 am   BACKBONE|DICT|INTERRES
   125   64   65 1    
   126   64  130 1    
   127   65   66 1    
   128   65   69 1    
   129   65  131 1    
   130   66   67 am   BACKBONE|DICT|INTERRES
   131   66   68 2    
   132   67  132 1    
   133   67  133 1    
   134   69   70 1    
   135   69  134 1    
   136   69  135 1    
   137   70   71 1    
   138   71  136 1    
   139   71  137 1    
@<TRIPOS>SUBSTRUCTURE
     1 UNK         1 GROUP             0       ****    0 ROOT    
