@<TRIPOS>MOLECULE
3R137
137   139    1
SMALL
USER_CHARGES


@<TRIPOS>ATOM
      1 CA         23.3597   -5.6082   -3.0276 C.3       0 UNK        -0.2020 
      2 C          24.6699   -4.8437   -2.9174 C.2       0 UNK         0.4855 
      3 O          25.0705   -4.1867   -3.8763 O.2       0 UNK        -0.5197 
      4 N          25.3249   -4.9161   -1.7502 N.am      1 UNK        -0.4892 
      5 CA         26.6140   -4.2930   -1.4170 C.3       1 UNK         0.0835 
      6 C6         27.8198   -5.0152   -2.0785 C.3       12 UNK        -0.0855 
      7 S7         29.2588   -5.0275   -0.9574 S.3       12 UNK        -0.2931 
      8 C8         30.6528   -5.0267   -2.1269 C.3       12 UNK         0.0378 
      9 C9         30.8446   -3.6919   -2.8368 C.ar      12 UNK        -0.0802 
     10 C10        30.9127   -3.6498   -4.2312 C.ar      12 UNK        -0.0944 
     11 C11        31.1767   -2.4485   -4.8932 C.ar      12 UNK        -0.0787 
     12 C12        31.3562   -1.2780   -4.1520 C.ar      12 UNK        -0.0862 
     13 C13        31.2451   -1.2927   -2.7573 C.ar      12 UNK        -0.0733 
     14 C14        31.0055   -2.5086   -2.1074 C.ar      12 UNK        -0.0832 
     15 C15        31.4011   -0.0160   -1.9307 C.3       12 UNK         0.0240 
     16 S16        30.6197    1.4712   -2.6563 S.3       12 UNK        -0.2522 
     17 C17        28.9089    0.9150   -2.9631 C.3       12 UNK        -0.0967 
     18 CA         28.5946    0.8701   -4.4835 C.3       5 UNK         0.0660 
     19 N          27.7927   -0.2951   -4.8538 N.am      5 UNK        -0.4015 
     20 C          27.6013   -0.7178   -6.1120 C.2       4 UNK         0.4946 
     21 O          28.1454   -0.2205   -7.1013 O.2       4 UNK        -0.5353 
     22 CA         26.6027   -1.8715   -6.3023 C.3       4 UNK         0.0277 
     23 CB         27.3037   -3.2278   -6.1333 C.3       4 UNK        -0.1981 
     24 N          25.4619   -1.7912   -5.3842 N.am      4 UNK        -0.4209 
     25 C          24.5601   -0.7979   -5.3821 C.2       3 UNK         0.4942 
     26 O          24.5702    0.1369   -6.1806 O.2       3 UNK        -0.5208 
     27 CA         23.4994   -0.8136   -4.2715 C.3       3 UNK         0.0250 
     28 CB         22.4067   -1.8551   -4.5615 C.3       3 UNK        -0.1990 
     29 N          24.0809   -1.0437   -2.9478 N.am      3 UNK        -0.4232 
     30 C          24.9284   -0.2042   -2.3339 C.2       2 UNK         0.4993 
     31 O          25.3014    0.8660   -2.8102 O.2       2 UNK        -0.5286 
     32 CA         25.4885   -0.6450   -0.9734 C.3       2 UNK         0.0209 
     33 CB         24.5612   -0.1932    0.1658 C.3       2 UNK        -0.1931 
     34 N          25.7103   -2.0900   -0.8855 N.am      2 UNK        -0.4546 
     35 C          26.5942   -2.7637   -1.6355 C.2       1 UNK         0.5154 
     36 O          27.3047   -2.2280   -2.4898 O.2       1 UNK        -0.5181 
     37 C          27.9654    2.1835   -4.9922 C.2       5 UNK         0.5014 
     38 O          28.6542    2.9671   -5.6461 O.2       5 UNK        -0.5248 
     39 N          26.6667    2.3870   -4.7210 N.am      6 UNK        -0.4434 
     40 CA         25.8888    3.5552   -5.1489 C.3       6 UNK         0.0363 
     41 CB         24.5017    3.5240   -4.4880 C.3       6 UNK        -0.1936 
     42 C          25.7529    3.6748   -6.6758 C.2       6 UNK         0.5081 
     43 O          25.8290    4.7843   -7.2040 O.2       6 UNK        -0.5248 
     44 N          25.5852    2.5352   -7.3605 N.am      7 UNK        -0.4718 
     45 CA         25.5734    2.4338   -8.8230 C.3       7 UNK         0.0273 
     46 CB         25.0047    1.0632   -9.2261 C.3       7 UNK        -0.1935 
     47 C          26.9582    2.6380   -9.4649 C.2       7 UNK         0.5018 
     48 O          27.0215    2.8560  -10.6755 O.2       7 UNK        -0.5186 
     49 N          28.0260    2.5480   -8.6562 N.am      8 UNK        -0.4240 
     50 CA         29.4417    2.6107   -9.0252 C.3       8 UNK         0.0235 
     51 CB         29.8235    4.0230   -9.5160 C.3       8 UNK        -0.2000 
     52 C          29.8201    1.4979  -10.0171 C.2       8 UNK         0.4941 
     53 O          30.4040    1.7731  -11.0684 O.2       8 UNK        -0.5273 
     54 N          29.4702    0.2515   -9.6684 N.am      9 UNK        -0.4262 
     55 CA         29.6845   -0.9530  -10.4772 C.3       9 UNK         0.0264 
     56 CB         28.7745   -2.0720   -9.9373 C.3       9 UNK        -0.1955 
     57 C          31.1684   -1.3718  -10.5260 C.2       9 UNK         0.5031 
     58 O          31.5292   -2.4218   -9.9954 O.2       9 UNK        -0.5390 
     59 N          32.0092   -0.5159  -11.1228 N.am      10 UNK        -0.4204 
     60 CA         33.4756   -0.5660  -11.2294 C.3       10 UNK         0.0237 
     61 CB         33.9738   -1.8607  -11.9024 C.3       10 UNK        -0.1985 
     62 C          34.1853   -0.3079   -9.8890 C.2       10 UNK         0.4970 
     63 O          35.0325    0.5825   -9.8188 O.2       10 UNK        -0.4914 
     64 N          33.8032   -1.0552   -8.8488 N.am      11 UNK        -0.4285 
     65 CA         34.2075   -0.8505   -7.4482 C.3       11 UNK         0.1007 
     66 C          33.5472    0.3763   -6.7511 C.2       11 UNK         0.5703 
     67 N          32.5701    1.0444   -7.3531 N.am      11 UNK        -0.7361 
     68 O          33.9427    0.7398   -5.6468 O.2       11 UNK        -0.4986 
     69 C69        34.0978   -2.1516   -6.5949 C.3       12 UNK        -0.0947 
     70 S70        32.7330   -3.2870   -7.0296 S.3       12 UNK        -0.2240 
     71 C71        31.2576   -2.4226   -6.4100 C.3       12 UNK         0.0194 
     72 H72        23.3793   -6.2580   -3.9020 H         1 UNK         0.0906 
     73 H73        23.1727   -6.2280   -2.1509 H         1 UNK         0.0906 
     74 H74        22.5269   -4.9146   -3.1377 H         1 UNK         0.0906 
     75 H75        24.9168   -5.4645   -1.0049 H         1 UNK         0.3140 
     76 H76        26.7010   -4.4291   -0.3373 H         1 UNK         0.1085 
     77 H77        28.0788   -4.5837   -3.0469 H         1 UNK         0.0836 
     78 H78        27.5714   -6.0580   -2.2817 H         1 UNK         0.0836 
     79 H79        30.5121   -5.8373   -2.8438 H         1 UNK         0.0731 
     80 H80        31.5666   -5.2596   -1.5787 H         1 UNK         0.0731 
     81 H81        30.7878   -4.5567   -4.8069 H         1 UNK         0.1312 
     82 H82        31.5687   -0.3492   -4.6613 H         1 UNK         0.1406 
     83 H83        30.9456   -2.5400   -1.0279 H         1 UNK         0.1631 
     84 H84        32.4650    0.1816   -1.7950 H         1 UNK         0.0717 
     85 H85        30.9844   -0.1598   -0.9325 H         1 UNK         0.0717 
     86 H86        28.7872   -0.0716   -2.5152 H         1 UNK         0.0934 
     87 H87        28.2170    1.5594   -2.4169 H         1 UNK         0.0934 
     88 H88        29.5328    0.7539   -5.0292 H         1 UNK         0.0739 
     89 H89        27.3562   -0.8115   -4.0979 H         1 UNK         0.3093 
     90 H90        26.2138   -1.8097   -7.3207 H         1 UNK         0.0818 
     91 H91        28.0930   -3.3544   -6.8730 H         1 UNK         0.0819 
     92 H92        26.6057   -4.0548   -6.2638 H         1 UNK         0.0819 
     93 H93        27.7568   -3.3261   -5.1457 H         1 UNK         0.0819 
     94 H94        25.3657   -2.5506   -4.7111 H         1 UNK         0.3041 
     95 H95        23.0274    0.1712   -4.2544 H         1 UNK         0.0784 
     96 H96        21.9261   -1.6535   -5.5199 H         1 UNK         0.0793 
     97 H97        22.8089   -2.8668   -4.6093 H         1 UNK         0.0793 
     98 H98        21.6273   -1.8373   -3.7996 H         1 UNK         0.0793 
     99 H99        23.8609   -1.9178   -2.4945 H         1 UNK         0.3024 
    100 H100       26.4546   -0.1507   -0.8464 H         1 UNK         0.1171 
    101 H101       24.9912   -0.4203    1.1416 H         1 UNK         0.0786 
    102 H102       24.3974    0.8849    0.1296 H         1 UNK         0.0786 
    103 H103       23.5836   -0.6734    0.1084 H         1 UNK         0.0786 
    104 H104       25.1442   -2.6013   -0.2234 H         1 UNK         0.2977 
    105 H105       26.1720    1.7107   -4.1388 H         1 UNK         0.3127 
    106 H106       26.4137    4.4453   -4.7959 H         1 UNK         0.0770 
    107 H107       23.9429    2.6304   -4.7694 H         1 UNK         0.0814 
    108 H108       23.9070    4.3895   -4.7829 H         1 UNK         0.0814 
    109 H109       24.5804    3.5397   -3.4008 H         1 UNK         0.0814 
    110 H110       25.4436    1.6684   -6.8446 H         1 UNK         0.2983 
    111 H111       24.9138    3.2108   -9.2154 H         1 UNK         0.0947 
    112 H112       24.9484    0.9642  -10.3110 H         1 UNK         0.0806 
    113 H113       23.9971    0.9208   -8.8353 H         1 UNK         0.0806 
    114 H114       25.6267    0.2473   -8.8551 H         1 UNK         0.0806 
    115 H115       27.8496    2.3641   -7.6759 H         1 UNK         0.3000 
    116 H116       30.0028    2.4156   -8.1105 H         1 UNK         0.0850 
    117 H117       30.8974    4.0968   -9.6917 H         1 UNK         0.0810 
    118 H118       29.5626    4.7811   -8.7775 H         1 UNK         0.0810 
    119 H119       29.3235    4.2785  -10.4507 H         1 UNK         0.0810 
    120 H120       29.0005    0.1140   -8.7742 H         1 UNK         0.3040 
    121 H121       29.3741   -0.7385  -11.5020 H         1 UNK         0.0766 
    122 H122       27.7249   -1.7788   -9.9637 H         1 UNK         0.0812 
    123 H123       29.0236   -2.3273   -8.9071 H         1 UNK         0.0812 
    124 H124       28.8743   -2.9804  -10.5328 H         1 UNK         0.0812 
    125 H125       31.5859    0.3586  -11.4318 H         1 UNK         0.3205 
    126 H126       33.7441    0.2616  -11.8880 H         1 UNK         0.0754 
    127 H127       35.0500   -1.8170  -12.0747 H         1 UNK         0.0769 
    128 H128       33.4965   -2.0119  -12.8706 H         1 UNK         0.0769 
    129 H129       33.7823   -2.7444  -11.2932 H         1 UNK         0.0769 
    130 H130       33.0855   -1.7582   -9.0071 H         1 UNK         0.2981 
    131 H131       35.2687   -0.5951   -7.4706 H         1 UNK         0.0541 
    132 H132       32.1746    1.8470   -6.8908 H         1 UNK         0.3459 
    133 H133       32.2622    0.7743   -8.2708 H         1 UNK         0.3459 
    134 H134       34.0584   -1.9412   -5.5244 H         1 UNK         0.0612 
    135 H135       35.0147   -2.7263   -6.7318 H         1 UNK         0.0612 
    136 H136       30.3791   -2.9201   -6.8190 H         1 UNK         0.0624 
    137 H137       31.2267   -1.4036   -6.7954 H         1 UNK         0.0624 
@<TRIPOS>BOND
     1    1    2 1    
     2    1   72 1    
     3    1   73 1    
     4    1   74 1    
     5    2    3 2    
     6    2    4 am   BACKBONE|DICT|INTERRES
     7    4    5 1    
     8    4   75 1    
     9    5    6 1    
    10    5   35 1    
    11    5   76 1    
    12    6    7 1    
    13    6   77 1    
    14    6   78 1    
    15    7    8 1    
    16    8    9 1    
    17    8   79 1    
    18    8   80 1    
    19    9   10 ar   
    20    9   14 ar   
    21   10   11 ar   
    22   10   81 1    
    23   11   12 ar   
    24   11   71 1    
    25   12   13 ar   
    26   12   82 1    
    27   13   14 ar   
    28   13   15 1    
    29   14   83 1    
    30   15   16 1    
    31   15   84 1    
    32   15   85 1    
    33   16   17 1    
    34   17   18 1    
    35   17   86 1    
    36   17   87 1    
    37   18   19 1    
    38   18   37 1    
    39   18   88 1    
    40   19   20 am   BACKBONE|DICT|INTERRES
    41   19   89 1    
    42   20   21 2    
    43   20   22 1    
    44   22   23 1    
    45   22   24 1    
    46   22   90 1    
    47   23   91 1    
    48   23   92 1    
    49   23   93 1    
    50   24   25 am   BACKBONE|DICT|INTERRES
    51   24   94 1    
    52   25   26 2    
    53   25   27 1    
    54   27   28 1    
    55   27   29 1    
    56   27   95 1    
    57   28   96 1    
    58   28   97 1    
    59   28   98 1    
    60   29   30 am   BACKBONE|DICT|INTERRES
    61   29   99 1    
    62   30   31 2    
    63   30   32 1    
    64   32   33 1    
    65   32   34 1    
    66   32  100 1    
    67   33  101 1    
    68   33  102 1    
    69   33  103 1    
    70   34   35 am   BACKBONE|DICT|INTERRES
    71   34  104 1    
    72   35   36 2    
    73   37   38 2    
    74   37   39 am   BACKBONE|DICT|INTERRES
    75   39   40 1    
    76   39  105 1    
    77   40   41 1    
    78   40   42 1    
    79   40  106 1    
    80   41  107 1    
    81   41  108 1    
    82   41  109 1    
    83   42   43 2    
    84   42   44 am   BACKBONE|DICT|INTERRES
    85   44   45 1    
    86   44  110 1    
    87   45   46 1    
    88   45   47 1    
    89   45  111 1    
    90   46  112 1    
    91   46  113 1    
    92   46  114 1    
    93   47   48 2    
    94   47   49 am   BACKBONE|DICT|INTERRES
    95   49   50 1    
    96   49  115 1    
    97   50   51 1    
    98   50   52 1    
    99   50  116 1    
   100   51  117 1    
   101   51  118 1    
   102   51  119 1    
   103   52   53 2    
   104   52   54 am   BACKBONE|DICT|INTERRES
   105   54   55 1    
   106   54  120 1    
   107   55   56 1    
   108   55   57 1    
   109   55  121 1    
   110   56  122 1    
   111   56  123 1    
   112   56  124 1    
   113   57   58 2    
   114   57   59 am   BACKBONE|DICT|INTERRES
   115   59   60 1    
   116   59  125 1    
   117   60   61 1    
   118   60   62 1    
   119   60  126 1    
   120   61  127 1    
   121   61  128 1    
   122   61  129 1    
   123   62   63 2    
   124   62   64 am   BACKBONE|DICT|INTERRES
   125   64   65 1    
   126   64  130 1    
   127   65   66 1    
   128   65   69 1    
   129   65  131 1    
   130   66   67 am   BACKBONE|DICT|INTERRES
   131   66   68 2    
   132   67  132 1    
   133   67  133 1    
   134   69   70 1    
   135   69  134 1    
   136   69  135 1    
   137   70   71 1    
   138   71  136 1    
   139   71  137 1    
@<TRIPOS>SUBSTRUCTURE
     1 UNK         1 GROUP             0       ****    0 ROOT    
