@<TRIPOS>MOLECULE
3R137
137   139    1
SMALL
USER_CHARGES


@<TRIPOS>ATOM
      1 CA         24.9254   -8.2118   -4.7355 C.3       0 UNK        -0.2020 
      2 C          25.3608   -7.3353   -3.5707 C.2       0 UNK         0.4855 
      3 O          25.2852   -7.7649   -2.4193 O.2       0 UNK        -0.5197 
      4 N          25.8158   -6.1090   -3.8602 N.am      1 UNK        -0.4892 
      5 CA         26.2862   -5.1317   -2.8674 C.3       1 UNK         0.0835 
      6 C6         27.1149   -3.9982   -3.5235 C.3       12 UNK        -0.0855 
      7 S7         28.6408   -4.6290   -4.2970 S.3       12 UNK        -0.2931 
      8 C8         29.8346   -4.4375   -2.9350 C.3       12 UNK         0.0378 
      9 C9         30.4876   -3.0628   -2.9376 C.ar      12 UNK        -0.0802 
     10 C10        31.6440   -2.8464   -3.6919 C.ar      12 UNK        -0.0944 
     11 C11        32.2801   -1.6021   -3.6799 C.ar      12 UNK        -0.0787 
     12 C12        31.7429   -0.5616   -2.9168 C.ar      12 UNK        -0.0862 
     13 C13        30.5813   -0.7629   -2.1635 C.ar      12 UNK        -0.0733 
     14 C14        29.9629   -2.0176   -2.1707 C.ar      12 UNK        -0.0832 
     15 C15        30.0027    0.3687   -1.3258 C.3       12 UNK         0.0240 
     16 S16        28.4535    1.0206   -2.0273 S.3       12 UNK        -0.2522 
     17 C17        29.0180    1.7153   -3.6189 C.3       12 UNK        -0.0967 
     18 CA         28.5750    0.8361   -4.8228 C.3       5 UNK         0.0660 
     19 N          27.1140    0.7117   -4.9117 N.am      5 UNK        -0.4015 
     20 C          26.2343    1.6442   -5.3014 C.2       4 UNK         0.4946 
     21 O          26.5525    2.7451   -5.7527 O.2       4 UNK        -0.5353 
     22 CA         24.7387    1.3161   -5.1468 C.3       4 UNK         0.0277 
     23 CB         24.2606    0.3003   -6.2032 C.3       4 UNK        -0.1981 
     24 N          24.3426    0.9146   -3.7885 N.am      4 UNK        -0.4209 
     25 C          24.6854   -0.1907   -3.1107 C.2       3 UNK         0.4942 
     26 O          25.4462   -1.0562   -3.5516 O.2       3 UNK        -0.5208 
     27 CA         24.1031   -0.3669   -1.6937 C.3       3 UNK         0.0250 
     28 CB         22.9748    0.6250   -1.3258 C.3       3 UNK        -0.1990 
     29 N          23.6864   -1.7567   -1.4825 N.am      3 UNK        -0.4232 
     30 C          22.7352   -2.4299   -2.1465 C.2       2 UNK         0.4993 
     31 O          21.9429   -1.9151   -2.9384 O.2       2 UNK        -0.5286 
     32 CA         22.7207   -3.9546   -1.9250 C.3       2 UNK         0.0209 
     33 CB         21.4610   -4.6286   -2.5016 C.3       2 UNK        -0.1931 
     34 N          23.9051   -4.5685   -2.5313 N.am      2 UNK        -0.4546 
     35 C          25.1441   -4.5340   -2.0194 C.2       1 UNK         0.5154 
     36 O          25.4053   -4.0357   -0.9221 O.2       1 UNK        -0.5181 
     37 C          29.1766    1.2854   -6.1718 C.2       5 UNK         0.5014 
     38 O          29.2502    0.4752   -7.0966 O.2       5 UNK        -0.5248 
     39 N          29.5334    2.5742   -6.2857 N.am      6 UNK        -0.4434 
     40 CA         30.0329    3.2258   -7.5010 C.3       6 UNK         0.0363 
     41 CB         30.4472    4.6657   -7.1584 C.3       6 UNK        -0.1936 
     42 C          29.0480    3.2146   -8.6898 C.2       6 UNK         0.5081 
     43 O          29.4798    3.4074   -9.8264 O.2       6 UNK        -0.5248 
     44 N          27.7516    2.9986   -8.4252 N.am      7 UNK        -0.4718 
     45 CA         26.7293    2.7936   -9.4539 C.3       7 UNK         0.0273 
     46 CB         25.3781    3.3111   -8.9328 C.3       7 UNK        -0.1935 
     47 C          26.6144    1.3229   -9.9038 C.2       7 UNK         0.5018 
     48 O          26.0139    1.0771  -10.9511 O.2       7 UNK        -0.5186 
     49 N          27.1588    0.3751   -9.1242 N.am      8 UNK        -0.4240 
     50 CA         27.1112   -1.0628   -9.4114 C.3       8 UNK         0.0235 
     51 CB         26.8350   -1.8437   -8.1138 C.3       8 UNK        -0.2000 
     52 C          28.4049   -1.5685  -10.0660 C.2       8 UNK         0.4941 
     53 O          28.3337   -2.4329  -10.9414 O.2       8 UNK        -0.5273 
     54 N          29.5557   -1.0400   -9.6355 N.am      9 UNK        -0.4262 
     55 CA         30.8889   -1.4029  -10.1136 C.3       9 UNK         0.0264 
     56 CB         31.4484   -2.5330   -9.2289 C.3       9 UNK        -0.1955 
     57 C          31.7870   -0.1609  -10.0857 C.2       9 UNK         0.5031 
     58 O          31.3733    0.8795   -9.5723 O.2       9 UNK        -0.5390 
     59 N          33.0127   -0.2779  -10.6155 N.am      10 UNK        -0.4204 
     60 CA         34.0205    0.7917  -10.6919 C.3       10 UNK         0.0237 
     61 CB         35.0735    0.4068  -11.7490 C.3       10 UNK        -0.1985 
     62 C          34.6534    1.1492   -9.3259 C.2       10 UNK         0.4970 
     63 O          35.8792    1.1937   -9.2017 O.2       10 UNK        -0.4914 
     64 N          33.7997    1.3866   -8.3274 N.am      11 UNK        -0.4285 
     65 CA         34.1436    1.6973   -6.9329 C.3       11 UNK         0.1007 
     66 C          34.2466    3.2214   -6.6399 C.2       11 UNK         0.5703 
     67 N          33.9964    4.1052   -7.5996 N.am      11 UNK        -0.7361 
     68 O          34.5758    3.6114   -5.5220 O.2       11 UNK        -0.4986 
     69 C69        33.1640    0.9938   -5.9563 C.3       12 UNK        -0.0947 
     70 S70        33.1903   -0.8197   -6.1639 S.3       12 UNK        -0.2240 
     71 C71        33.5561   -1.3987   -4.4815 C.3       12 UNK         0.0194 
     72 H72        23.8754   -8.4832   -4.6291 H         1 UNK         0.0906 
     73 H73        25.0505   -7.7089   -5.6945 H         1 UNK         0.0906 
     74 H74        25.5139   -9.1287   -4.7546 H         1 UNK         0.0906 
     75 H75        25.8879   -5.8183   -4.8255 H         1 UNK         0.3140 
     76 H76        26.9349   -5.6604   -2.1651 H         1 UNK         0.1085 
     77 H77        26.5269   -3.4900   -4.2905 H         1 UNK         0.0836 
     78 H78        27.3755   -3.2274   -2.7965 H         1 UNK         0.0836 
     79 H79        29.3477   -4.6301   -1.9778 H         1 UNK         0.0731 
     80 H80        30.6028   -5.2054   -3.0380 H         1 UNK         0.0731 
     81 H81        32.0547   -3.6523   -4.2851 H         1 UNK         0.1312 
     82 H82        32.2325    0.4023   -2.9064 H         1 UNK         0.1406 
     83 H83        29.0727   -2.1745   -1.5773 H         1 UNK         0.1631 
     84 H84        30.7208    1.1832   -1.2183 H         1 UNK         0.0717 
     85 H85        29.8049    0.0035   -0.3171 H         1 UNK         0.0717 
     86 H86        28.6066    2.7232   -3.6973 H         1 UNK         0.0934 
     87 H87        30.1035    1.8271   -3.5966 H         1 UNK         0.0934 
     88 H88        28.9551   -0.1731   -4.6531 H         1 UNK         0.0739 
     89 H89        26.7187   -0.1412   -4.5205 H         1 UNK         0.3093 
     90 H90        24.2056    2.2484   -5.3414 H         1 UNK         0.0818 
     91 H91        23.1724    0.2376   -6.2201 H         1 UNK         0.0819 
     92 H92        24.5842    0.5845   -7.2052 H         1 UNK         0.0819 
     93 H93        24.6427   -0.7015   -6.0103 H         1 UNK         0.0819 
     94 H94        23.7332    1.5672   -3.3152 H         1 UNK         0.3041 
     95 H95        24.9328   -0.1925   -1.0068 H         1 UNK         0.0784 
     96 H96        23.3385    1.6531   -1.3136 H         1 UNK         0.0793 
     97 H97        22.1366    0.5759   -2.0219 H         1 UNK         0.0793 
     98 H98        22.5849    0.4186   -0.3289 H         1 UNK         0.0793 
     99 H99        24.3335   -2.3216   -0.9404 H         1 UNK         0.3024 
    100 H100       22.7340   -4.1343   -0.8472 H         1 UNK         0.1171 
    101 H101       20.5567   -4.1994   -2.0682 H         1 UNK         0.0786 
    102 H102       21.4483   -5.6968   -2.2833 H         1 UNK         0.0786 
    103 H103       21.3938   -4.5069   -3.5836 H         1 UNK         0.0786 
    104 H104       23.7864   -4.9788   -3.4462 H         1 UNK         0.2977 
    105 H105       29.3660    3.1823   -5.4976 H         1 UNK         0.3127 
    106 H106       30.9262    2.6864   -7.8161 H         1 UNK         0.0770 
    107 H107       29.5977    5.2602   -6.8197 H         1 UNK         0.0814 
    108 H108       30.8690    5.1672   -8.0307 H         1 UNK         0.0814 
    109 H109       31.2084    4.6863   -6.3782 H         1 UNK         0.0814 
    110 H110       27.4537    2.9061   -7.4565 H         1 UNK         0.2983 
    111 H111       26.9865    3.3791  -10.3400 H         1 UNK         0.0947 
    112 H112       24.5999    3.2040   -9.6904 H         1 UNK         0.0806 
    113 H113       25.4332    4.3691   -8.6737 H         1 UNK         0.0806 
    114 H114       25.0476    2.7688   -8.0475 H         1 UNK         0.0806 
    115 H115       27.7132    0.6544   -8.3208 H         1 UNK         0.3000 
    116 H116       26.2925   -1.2778  -10.1031 H         1 UNK         0.0850 
    117 H117       26.8795   -2.9200   -8.2868 H         1 UNK         0.0810 
    118 H118       27.5580   -1.6104   -7.3301 H         1 UNK         0.0810 
    119 H119       25.8389   -1.6270   -7.7326 H         1 UNK         0.0810 
    120 H120       29.5453   -0.3152   -8.9207 H         1 UNK         0.3040 
    121 H121       30.8322   -1.7418  -11.1503 H         1 UNK         0.0766 
    122 H122       30.8256   -3.4254   -9.2908 H         1 UNK         0.0812 
    123 H123       31.4925   -2.2343   -8.1808 H         1 UNK         0.0812 
    124 H124       32.4556   -2.8229   -9.5312 H         1 UNK         0.0812 
    125 H125       33.2902   -1.1751  -10.9874 H         1 UNK         0.3205 
    126 H126       33.5200    1.6962  -11.0448 H         1 UNK         0.0754 
    127 H127       35.8038    1.2058  -11.8858 H         1 UNK         0.0769 
    128 H128       34.6134    0.2260  -12.7207 H         1 UNK         0.0769 
    129 H129       35.6220   -0.4920  -11.4637 H         1 UNK         0.0769 
    130 H130       32.8073    1.3144   -8.5433 H         1 UNK         0.2981 
    131 H131       35.1400    1.3002   -6.7303 H         1 UNK         0.0541 
    132 H132       33.7412    3.7976   -8.5240 H         1 UNK         0.3459 
    133 H133       34.0794    5.0886   -7.3973 H         1 UNK         0.3459 
    134 H134       32.1442    1.3405   -6.1202 H         1 UNK         0.0612 
    135 H135       33.4073    1.2435   -4.9227 H         1 UNK         0.0612 
    136 H136       34.2287   -0.7056   -3.9744 H         1 UNK         0.0624 
    137 H137       34.0985   -2.3426   -4.5533 H         1 UNK         0.0624 
@<TRIPOS>BOND
     1    1    2 1    
     2    1   72 1    
     3    1   73 1    
     4    1   74 1    
     5    2    3 2    
     6    2    4 am   BACKBONE|DICT|INTERRES
     7    4    5 1    
     8    4   75 1    
     9    5    6 1    
    10    5   35 1    
    11    5   76 1    
    12    6    7 1    
    13    6   77 1    
    14    6   78 1    
    15    7    8 1    
    16    8    9 1    
    17    8   79 1    
    18    8   80 1    
    19    9   10 ar   
    20    9   14 ar   
    21   10   11 ar   
    22   10   81 1    
    23   11   12 ar   
    24   11   71 1    
    25   12   13 ar   
    26   12   82 1    
    27   13   14 ar   
    28   13   15 1    
    29   14   83 1    
    30   15   16 1    
    31   15   84 1    
    32   15   85 1    
    33   16   17 1    
    34   17   18 1    
    35   17   86 1    
    36   17   87 1    
    37   18   19 1    
    38   18   37 1    
    39   18   88 1    
    40   19   20 am   BACKBONE|DICT|INTERRES
    41   19   89 1    
    42   20   21 2    
    43   20   22 1    
    44   22   23 1    
    45   22   24 1    
    46   22   90 1    
    47   23   91 1    
    48   23   92 1    
    49   23   93 1    
    50   24   25 am   BACKBONE|DICT|INTERRES
    51   24   94 1    
    52   25   26 2    
    53   25   27 1    
    54   27   28 1    
    55   27   29 1    
    56   27   95 1    
    57   28   96 1    
    58   28   97 1    
    59   28   98 1    
    60   29   30 am   BACKBONE|DICT|INTERRES
    61   29   99 1    
    62   30   31 2    
    63   30   32 1    
    64   32   33 1    
    65   32   34 1    
    66   32  100 1    
    67   33  101 1    
    68   33  102 1    
    69   33  103 1    
    70   34   35 am   BACKBONE|DICT|INTERRES
    71   34  104 1    
    72   35   36 2    
    73   37   38 2    
    74   37   39 am   BACKBONE|DICT|INTERRES
    75   39   40 1    
    76   39  105 1    
    77   40   41 1    
    78   40   42 1    
    79   40  106 1    
    80   41  107 1    
    81   41  108 1    
    82   41  109 1    
    83   42   43 2    
    84   42   44 am   BACKBONE|DICT|INTERRES
    85   44   45 1    
    86   44  110 1    
    87   45   46 1    
    88   45   47 1    
    89   45  111 1    
    90   46  112 1    
    91   46  113 1    
    92   46  114 1    
    93   47   48 2    
    94   47   49 am   BACKBONE|DICT|INTERRES
    95   49   50 1    
    96   49  115 1    
    97   50   51 1    
    98   50   52 1    
    99   50  116 1    
   100   51  117 1    
   101   51  118 1    
   102   51  119 1    
   103   52   53 2    
   104   52   54 am   BACKBONE|DICT|INTERRES
   105   54   55 1    
   106   54  120 1    
   107   55   56 1    
   108   55   57 1    
   109   55  121 1    
   110   56  122 1    
   111   56  123 1    
   112   56  124 1    
   113   57   58 2    
   114   57   59 am   BACKBONE|DICT|INTERRES
   115   59   60 1    
   116   59  125 1    
   117   60   61 1    
   118   60   62 1    
   119   60  126 1    
   120   61  127 1    
   121   61  128 1    
   122   61  129 1    
   123   62   63 2    
   124   62   64 am   BACKBONE|DICT|INTERRES
   125   64   65 1    
   126   64  130 1    
   127   65   66 1    
   128   65   69 1    
   129   65  131 1    
   130   66   67 am   BACKBONE|DICT|INTERRES
   131   66   68 2    
   132   67  132 1    
   133   67  133 1    
   134   69   70 1    
   135   69  134 1    
   136   69  135 1    
   137   70   71 1    
   138   71  136 1    
   139   71  137 1    
@<TRIPOS>SUBSTRUCTURE
     1 UNK         1 GROUP             0       ****    0 ROOT    
