@<TRIPOS>MOLECULE
3R137
137   139    1
SMALL
USER_CHARGES


@<TRIPOS>ATOM
      1 CA         25.6448   -7.5967   -0.8929 C.3       0 UNK        -0.2020 
      2 C          26.1497   -6.2962   -0.2863 C.2       0 UNK         0.4855 
      3 O          25.7857   -5.9657    0.8424 O.2       0 UNK        -0.5197 
      4 N          26.9859   -5.5554   -1.0266 N.am      1 UNK        -0.4892 
      5 CA         27.5539   -4.2647   -0.6085 C.3       1 UNK         0.0835 
      6 C6         28.7989   -3.9033   -1.4593 C.3       12 UNK        -0.0855 
      7 S7         30.0467   -2.9647   -0.5153 S.3       12 UNK        -0.2931 
      8 C8         31.5266   -3.1935   -1.5530 C.3       12 UNK         0.0378 
      9 C9         31.3742   -2.4948   -2.8953 C.ar      12 UNK        -0.0802 
     10 C10        31.6590   -1.1312   -3.0128 C.ar      12 UNK        -0.0944 
     11 C11        31.4940   -0.4740   -4.2359 C.ar      12 UNK        -0.0787 
     12 C12        31.0100   -1.1888   -5.3359 C.ar      12 UNK        -0.0862 
     13 C13        30.7302   -2.5540   -5.2344 C.ar      12 UNK        -0.0733 
     14 C14        30.9321   -3.2061   -4.0149 C.ar      12 UNK        -0.0832 
     15 C15        30.2104   -3.3158   -6.4470 C.3       12 UNK         0.0240 
     16 S16        28.6134   -4.1518   -6.1541 S.3       12 UNK        -0.2522 
     17 C17        27.5504   -2.8304   -5.4795 C.3       12 UNK        -0.0967 
     18 CA         26.9046   -1.9380   -6.5726 C.3       5 UNK         0.0660 
     19 N          25.5404   -1.5384   -6.2203 N.am      5 UNK        -0.4015 
     20 C          24.6583   -1.0082   -7.0822 C.2       4 UNK         0.4946 
     21 O          24.8815   -0.8677   -8.2839 O.2       4 UNK        -0.5353 
     22 CA         23.3142   -0.5146   -6.5130 C.3       4 UNK         0.0277 
     23 CB         22.2558   -1.6257   -6.5981 C.3       4 UNK        -0.1981 
     24 N          23.4059   -0.0359   -5.1317 N.am      4 UNK        -0.4209 
     25 C          24.1627    0.9942   -4.7257 C.2       3 UNK         0.4942 
     26 O          24.7874    1.7220   -5.4954 O.2       3 UNK        -0.5208 
     27 CA         24.3012    1.2122   -3.2070 C.3       3 UNK         0.0250 
     28 CB         23.3327    2.3071   -2.7332 C.3       3 UNK        -0.1990 
     29 N          24.1026   -0.0001   -2.3996 N.am      3 UNK        -0.4232 
     30 C          24.8205   -1.1279   -2.5066 C.2       2 UNK         0.4993 
     31 O          25.7269   -1.2867   -3.3292 O.2       2 UNK        -0.5286 
     32 CA         24.3834   -2.2974   -1.6114 C.3       2 UNK         0.0209 
     33 CB         23.1695   -3.0126   -2.2293 C.3       2 UNK        -0.1931 
     34 N          25.4579   -3.2743   -1.4367 N.am      2 UNK        -0.4546 
     35 C          26.5071   -3.1249   -0.6162 C.2       1 UNK         0.5154 
     36 O          26.6507   -2.1547    0.1301 O.2       1 UNK        -0.5181 
     37 C          27.7636   -0.6955   -6.8729 C.2       5 UNK         0.5014 
     38 O          28.4338   -0.6561   -7.9036 O.2       5 UNK        -0.5248 
     39 N          27.6842    0.3132   -5.9906 N.am      6 UNK        -0.4434 
     40 CA         28.3729    1.6004   -6.1259 C.3       6 UNK         0.0363 
     41 CB         28.2179    2.4048   -4.8258 C.3       6 UNK        -0.1936 
     42 C          27.9009    2.4203   -7.3402 C.2       6 UNK         0.5081 
     43 O          28.7008    3.1430   -7.9342 O.2       6 UNK        -0.5248 
     44 N          26.6168    2.2877   -7.6980 N.am      7 UNK        -0.4718 
     45 CA         26.0380    2.8495   -8.9185 C.3       7 UNK         0.0273 
     46 CB         24.5048    2.7979   -8.8285 C.3       7 UNK        -0.1935 
     47 C          26.5320    2.1365  -10.1903 C.2       7 UNK         0.5018 
     48 O          26.7122    2.7974  -11.2139 O.2       7 UNK        -0.5186 
     49 N          26.7341    0.8127  -10.1118 N.am      8 UNK        -0.4240 
     50 CA         27.2166   -0.0185  -11.2158 C.3       8 UNK         0.0235 
     51 CB         26.9195   -1.4999  -10.9297 C.3       8 UNK        -0.2000 
     52 C          28.7087    0.1913  -11.5201 C.2       8 UNK         0.4941 
     53 O          29.0689    0.2627  -12.6965 O.2       8 UNK        -0.5273 
     54 N          29.5479    0.2883  -10.4808 N.am      9 UNK        -0.4262 
     55 CA         30.9879    0.5102  -10.6037 C.3       9 UNK         0.0264 
     56 CB         31.7116   -0.8384  -10.7686 C.3       9 UNK        -0.1955 
     57 C          31.5020    1.2459   -9.3652 C.2       9 UNK         0.5031 
     58 O          31.0571    0.9504   -8.2557 O.2       9 UNK        -0.5390 
     59 N          32.4776    2.1439   -9.5552 N.am      10 UNK        -0.4204 
     60 CA         33.1191    2.9443   -8.5034 C.3       10 UNK         0.0237 
     61 CB         33.7871    4.1727   -9.1507 C.3       10 UNK        -0.1985 
     62 C          34.0966    2.1255   -7.6308 C.2       10 UNK         0.4970 
     63 O          35.2650    2.4940   -7.4949 O.2       10 UNK        -0.4914 
     64 N          33.5862    1.0288   -7.0631 N.am      11 UNK        -0.4285 
     65 CA         34.2763    0.0488   -6.2150 C.3       11 UNK         0.1007 
     66 C          35.4117   -0.7093   -6.9721 C.2       11 UNK         0.5703 
     67 N          36.3668   -1.3080   -6.2716 N.am      11 UNK        -0.7361 
     68 O          35.4072   -0.8140   -8.1979 O.2       11 UNK        -0.4986 
     69 C69        34.7111    0.6357   -4.8366 C.3       12 UNK        -0.0947 
     70 S70        33.4657    1.4906   -3.7922 S.3       12 UNK        -0.2240 
     71 C71        31.7971    1.0137   -4.3687 C.3       12 UNK         0.0194 
     72 H72        25.9294   -8.4394   -0.2633 H         1 UNK         0.0906 
     73 H73        24.5578   -7.5788   -0.9669 H         1 UNK         0.0906 
     74 H74        26.0496   -7.7676   -1.8903 H         1 UNK         0.0906 
     75 H75        27.2570   -5.8830   -1.9434 H         1 UNK         0.3140 
     76 H76        27.8714   -4.3867    0.4300 H         1 UNK         0.1085 
     77 H77        28.5257   -3.3483   -2.3597 H         1 UNK         0.0836 
     78 H78        29.2876   -4.8143   -1.8087 H         1 UNK         0.0836 
     79 H79        32.3938   -2.7924   -1.0263 H         1 UNK         0.0731 
     80 H80        31.7203   -4.2586   -1.6903 H         1 UNK         0.0731 
     81 H81        32.0033   -0.5786   -2.1493 H         1 UNK         0.1312 
     82 H82        30.8530   -0.6828   -6.2785 H         1 UNK         0.1406 
     83 H83        30.7131   -4.2621   -3.9326 H         1 UNK         0.1631 
     84 H84        30.9487   -4.0665   -6.7316 H         1 UNK         0.0717 
     85 H85        30.1080   -2.6545   -7.3083 H         1 UNK         0.0717 
     86 H86        26.7693   -3.3495   -4.9215 H         1 UNK         0.0934 
     87 H87        28.0839   -2.2487   -4.7251 H         1 UNK         0.0934 
     88 H88        26.8310   -2.5169   -7.4962 H         1 UNK         0.0739 
     89 H89        25.3171   -1.5605   -5.2299 H         1 UNK         0.3093 
     90 H90        22.9835    0.3224   -7.1312 H         1 UNK         0.0818 
     91 H91        21.2761   -1.2668   -6.2820 H         1 UNK         0.0819 
     92 H92        22.1510   -1.9853   -7.6229 H         1 UNK         0.0819 
     93 H93        22.5173   -2.4835   -5.9772 H         1 UNK         0.0819 
     94 H94        22.9128   -0.5684   -4.4306 H         1 UNK         0.3041 
     95 H95        25.3214    1.5574   -3.0269 H         1 UNK         0.0784 
     96 H96        23.4769    3.2276   -3.3011 H         1 UNK         0.0793 
     97 H97        22.2912    2.0077   -2.8574 H         1 UNK         0.0793 
     98 H98        23.4906    2.5505   -1.6824 H         1 UNK         0.0793 
     99 H99        23.3623    0.0389   -1.7130 H         1 UNK         0.3024 
    100 H100       24.1061   -1.9033   -0.6307 H         1 UNK         0.1171 
    101 H101       22.3202   -2.3358   -2.3313 H         1 UNK         0.0786 
    102 H102       22.8409   -3.8442   -1.6053 H         1 UNK         0.0786 
    103 H103       23.3934   -3.4075   -3.2215 H         1 UNK         0.0786 
    104 H104       25.4299   -4.0934   -2.0249 H         1 UNK         0.2977 
    105 H105       27.0861    0.2014   -5.1841 H         1 UNK         0.3127 
    106 H106       29.4323    1.3894   -6.2698 H         1 UNK         0.0770 
    107 H107       27.1784    2.6750   -4.6384 H         1 UNK         0.0814 
    108 H108       28.7907    3.3318   -4.8746 H         1 UNK         0.0814 
    109 H109       28.5804    1.8443   -3.9641 H         1 UNK         0.0814 
    110 H110       25.9949    1.7727   -7.0822 H         1 UNK         0.2983 
    111 H111       26.3406    3.8969   -8.9861 H         1 UNK         0.0947 
    112 H112       24.0479    3.2701   -9.6991 H         1 UNK         0.0806 
    113 H113       24.1403    3.3222   -7.9448 H         1 UNK         0.0806 
    114 H114       24.1379    1.7723   -8.7846 H         1 UNK         0.0806 
    115 H115       26.5365    0.3394   -9.2382 H         1 UNK         0.3000 
    116 H116       26.6581    0.2623  -12.1115 H         1 UNK         0.0850 
    117 H117       27.2404   -2.1288  -11.7610 H         1 UNK         0.0810 
    118 H118       25.8519   -1.6693  -10.7885 H         1 UNK         0.0810 
    119 H119       27.4344   -1.8541  -10.0368 H         1 UNK         0.0810 
    120 H120       29.1967    0.2006   -9.5276 H         1 UNK         0.3040 
    121 H121       31.1841    1.1345  -11.4781 H         1 UNK         0.0766 
    122 H122       32.7916   -0.7001  -10.8354 H         1 UNK         0.0812 
    123 H123       31.3936   -1.3524  -11.6757 H         1 UNK         0.0812 
    124 H124       31.5187   -1.5005   -9.9232 H         1 UNK         0.0812 
    125 H125       32.8255    2.2847  -10.4930 H         1 UNK         0.3205 
    126 H126       32.3369    3.3114   -7.8348 H         1 UNK         0.0754 
    127 H127       34.2268    4.8236   -8.3937 H         1 UNK         0.0769 
    128 H128       33.0644    4.7711   -9.7061 H         1 UNK         0.0769 
    129 H129       34.5844    3.8845   -9.8370 H         1 UNK         0.0769 
    130 H130       32.6218    0.8097   -7.3008 H         1 UNK         0.2981 
    131 H131       33.5463   -0.7329   -6.0240 H         1 UNK         0.0541 
    132 H132       36.3850   -1.2598   -5.2654 H         1 UNK         0.3459 
    133 H133       37.0864   -1.8153   -6.7624 H         1 UNK         0.3459 
    134 H134       35.5384    1.3325   -4.9805 H         1 UNK         0.0612 
    135 H135       35.1072   -0.1642   -4.2099 H         1 UNK         0.0612 
    136 H136       31.0718    1.5563   -3.7620 H         1 UNK         0.0624 
    137 H137       31.6425    1.3657   -5.3872 H         1 UNK         0.0624 
@<TRIPOS>BOND
     1    1    2 1    
     2    1   72 1    
     3    1   73 1    
     4    1   74 1    
     5    2    3 2    
     6    2    4 am   BACKBONE|DICT|INTERRES
     7    4    5 1    
     8    4   75 1    
     9    5    6 1    
    10    5   35 1    
    11    5   76 1    
    12    6    7 1    
    13    6   77 1    
    14    6   78 1    
    15    7    8 1    
    16    8    9 1    
    17    8   79 1    
    18    8   80 1    
    19    9   10 ar   
    20    9   14 ar   
    21   10   11 ar   
    22   10   81 1    
    23   11   12 ar   
    24   11   71 1    
    25   12   13 ar   
    26   12   82 1    
    27   13   14 ar   
    28   13   15 1    
    29   14   83 1    
    30   15   16 1    
    31   15   84 1    
    32   15   85 1    
    33   16   17 1    
    34   17   18 1    
    35   17   86 1    
    36   17   87 1    
    37   18   19 1    
    38   18   37 1    
    39   18   88 1    
    40   19   20 am   BACKBONE|DICT|INTERRES
    41   19   89 1    
    42   20   21 2    
    43   20   22 1    
    44   22   23 1    
    45   22   24 1    
    46   22   90 1    
    47   23   91 1    
    48   23   92 1    
    49   23   93 1    
    50   24   25 am   BACKBONE|DICT|INTERRES
    51   24   94 1    
    52   25   26 2    
    53   25   27 1    
    54   27   28 1    
    55   27   29 1    
    56   27   95 1    
    57   28   96 1    
    58   28   97 1    
    59   28   98 1    
    60   29   30 am   BACKBONE|DICT|INTERRES
    61   29   99 1    
    62   30   31 2    
    63   30   32 1    
    64   32   33 1    
    65   32   34 1    
    66   32  100 1    
    67   33  101 1    
    68   33  102 1    
    69   33  103 1    
    70   34   35 am   BACKBONE|DICT|INTERRES
    71   34  104 1    
    72   35   36 2    
    73   37   38 2    
    74   37   39 am   BACKBONE|DICT|INTERRES
    75   39   40 1    
    76   39  105 1    
    77   40   41 1    
    78   40   42 1    
    79   40  106 1    
    80   41  107 1    
    81   41  108 1    
    82   41  109 1    
    83   42   43 2    
    84   42   44 am   BACKBONE|DICT|INTERRES
    85   44   45 1    
    86   44  110 1    
    87   45   46 1    
    88   45   47 1    
    89   45  111 1    
    90   46  112 1    
    91   46  113 1    
    92   46  114 1    
    93   47   48 2    
    94   47   49 am   BACKBONE|DICT|INTERRES
    95   49   50 1    
    96   49  115 1    
    97   50   51 1    
    98   50   52 1    
    99   50  116 1    
   100   51  117 1    
   101   51  118 1    
   102   51  119 1    
   103   52   53 2    
   104   52   54 am   BACKBONE|DICT|INTERRES
   105   54   55 1    
   106   54  120 1    
   107   55   56 1    
   108   55   57 1    
   109   55  121 1    
   110   56  122 1    
   111   56  123 1    
   112   56  124 1    
   113   57   58 2    
   114   57   59 am   BACKBONE|DICT|INTERRES
   115   59   60 1    
   116   59  125 1    
   117   60   61 1    
   118   60   62 1    
   119   60  126 1    
   120   61  127 1    
   121   61  128 1    
   122   61  129 1    
   123   62   63 2    
   124   62   64 am   BACKBONE|DICT|INTERRES
   125   64   65 1    
   126   64  130 1    
   127   65   66 1    
   128   65   69 1    
   129   65  131 1    
   130   66   67 am   BACKBONE|DICT|INTERRES
   131   66   68 2    
   132   67  132 1    
   133   67  133 1    
   134   69   70 1    
   135   69  134 1    
   136   69  135 1    
   137   70   71 1    
   138   71  136 1    
   139   71  137 1    
@<TRIPOS>SUBSTRUCTURE
     1 UNK         1 GROUP             0       ****    0 ROOT    
