@<TRIPOS>MOLECULE
3R137
137   139    1
SMALL
USER_CHARGES


@<TRIPOS>ATOM
      1 CA         24.9186   -4.0753    1.6074 C.3       0 UNK        -0.2020 
      2 C          25.7722   -3.6672    0.4157 C.2       0 UNK         0.4855 
      3 O          25.6098   -2.5628   -0.1018 O.2       0 UNK        -0.5197 
      4 N          26.6853   -4.5462   -0.0132 N.am      1 UNK        -0.4892 
      5 CA         27.5606   -4.3511   -1.1749 C.3       1 UNK         0.0835 
      6 C6         28.7762   -5.3094   -1.1338 C.3       12 UNK        -0.0855 
      7 S7         29.8327   -4.9798    0.3177 S.3       12 UNK        -0.2931 
      8 C8         31.3398   -4.2971   -0.4489 C.3       12 UNK         0.0378 
      9 C9         31.0796   -3.0739   -1.3230 C.ar      12 UNK        -0.0802 
     10 C10        31.5310   -3.0567   -2.6457 C.ar      12 UNK        -0.0944 
     11 C11        31.3505   -1.9291   -3.4523 C.ar      12 UNK        -0.0787 
     12 C12        30.6924   -0.8138   -2.9213 C.ar      12 UNK        -0.0862 
     13 C13        30.2161   -0.8196   -1.6050 C.ar      12 UNK        -0.0733 
     14 C14        30.4227   -1.9512   -0.8093 C.ar      12 UNK        -0.0832 
     15 C15        29.5182    0.4043   -1.0199 C.3       12 UNK         0.0240 
     16 S16        27.8216    0.6294   -1.6576 S.3       12 UNK        -0.2522 
     17 C17        28.1266    1.4961   -3.2335 C.3       12 UNK        -0.0967 
     18 CA         27.7544    0.5995   -4.4519 C.3       5 UNK         0.0660 
     19 N          26.3086    0.5720   -4.7061 N.am      5 UNK        -0.4015 
     20 C          25.5851    1.5549   -5.2699 C.2       4 UNK         0.4946 
     21 O          26.0565    2.6504   -5.5812 O.2       4 UNK        -0.5353 
     22 CA         24.1054    1.2586   -5.5695 C.3       4 UNK         0.0277 
     23 CB         23.5498    2.0976   -6.7368 C.3       4 UNK        -0.1981 
     24 N          23.9160   -0.1636   -5.8519 N.am      4 UNK        -0.4209 
     25 C          22.8897   -0.9038   -5.4213 C.2       3 UNK         0.4942 
     26 O          21.9067   -0.4438   -4.8386 O.2       3 UNK        -0.5208 
     27 CA         22.9765   -2.4246   -5.6595 C.3       3 UNK         0.0250 
     28 CB         22.2814   -2.7894   -6.9819 C.3       3 UNK        -0.1990 
     29 N          24.3219   -3.0263   -5.6448 N.am      3 UNK        -0.4232 
     30 C          25.2829   -2.8395   -4.7268 C.2       2 UNK         0.4993 
     31 O          25.2497   -1.9668   -3.8565 O.2       2 UNK        -0.5286 
     32 CA         26.5150   -3.7550   -4.8283 C.3       2 UNK         0.0209 
     33 CB         27.4894   -3.2517   -5.9039 C.3       2 UNK        -0.1931 
     34 N          27.2186   -3.8307   -3.5449 N.am      2 UNK        -0.4546 
     35 C          26.7736   -4.5242   -2.4889 C.2       1 UNK         0.5154 
     36 O          25.8096   -5.2949   -2.5354 O.2       1 UNK        -0.5181 
     37 C          28.5257    0.9078   -5.7577 C.2       5 UNK         0.5014 
     38 O          28.2997    0.2276   -6.7637 O.2       5 UNK        -0.5248 
     39 N          29.3946    1.9278   -5.7444 N.am      6 UNK        -0.4434 
     40 CA         30.2140    2.3491   -6.8795 C.3       6 UNK         0.0363 
     41 CB         31.2153    3.4195   -6.4211 C.3       6 UNK        -0.1936 
     42 C          29.4067    2.8431   -8.0896 C.2       6 UNK         0.5081 
     43 O          29.8939    2.7110   -9.2096 O.2       6 UNK        -0.5248 
     44 N          28.1840    3.3505   -7.8755 N.am      7 UNK        -0.4718 
     45 CA         27.2852    3.7613   -8.9598 C.3       7 UNK         0.0273 
     46 CB         26.1537    4.6351   -8.3969 C.3       7 UNK        -0.1935 
     47 C          26.7217    2.5730   -9.7625 C.2       7 UNK         0.5018 
     48 O          26.3110    2.7711  -10.9065 O.2       7 UNK        -0.5186 
     49 N          26.7264    1.3714   -9.1672 N.am      8 UNK        -0.4240 
     50 CA         26.3694    0.1195   -9.8319 C.3       8 UNK         0.0235 
     51 CB         25.5501   -0.7627   -8.8737 C.3       8 UNK        -0.2000 
     52 C          27.6236   -0.6238  -10.3129 C.2       8 UNK         0.4941 
     53 O          27.6741   -1.0368  -11.4717 O.2       8 UNK        -0.5273 
     54 N          28.5972   -0.8089   -9.4110 N.am      9 UNK        -0.4262 
     55 CA         29.7522   -1.6834   -9.6262 C.3       9 UNK         0.0264 
     56 CB         30.2382   -2.1885   -8.2608 C.3       9 UNK        -0.1955 
     57 C          30.9290   -1.0417  -10.3757 C.2       9 UNK         0.5031 
     58 O          31.7656   -1.7861  -10.8886 O.2       9 UNK        -0.5390 
     59 N          31.0251    0.2977  -10.3706 N.am      10 UNK        -0.4204 
     60 CA         32.1918    1.0890  -10.7967 C.3       10 UNK         0.0237 
     61 CB         32.4597    0.9338  -12.3099 C.3       10 UNK        -0.1985 
     62 C          33.4460    0.8323   -9.9303 C.2       10 UNK         0.4970 
     63 O          34.5659    1.0119  -10.4113 O.2       10 UNK        -0.4914 
     64 N          33.2399    0.4196   -8.6701 N.am      11 UNK        -0.4285 
     65 CA         34.2955    0.0758   -7.7046 C.3       11 UNK         0.1007 
     66 C          35.0275    1.2861   -7.0511 C.2       11 UNK         0.5703 
     67 N          34.6333    2.5263   -7.3156 N.am      11 UNK        -0.7361 
     68 O          35.9849    1.0955   -6.3048 O.2       11 UNK        -0.4986 
     69 C69        33.8016   -0.9715   -6.6680 C.3       12 UNK        -0.0947 
     70 S70        32.5269   -0.3742   -5.5025 S.3       12 UNK        -0.2240 
     71 C71        31.8550   -1.9618   -4.8946 C.3       12 UNK         0.0194 
     72 H72        23.8651   -4.0818    1.3290 H         1 UNK         0.0906 
     73 H73        25.1782   -5.0678    1.9753 H         1 UNK         0.0906 
     74 H74        25.0510   -3.3661    2.4242 H         1 UNK         0.0906 
     75 H75        26.7668   -5.4430    0.4439 H         1 UNK         0.3140 
     76 H76        27.9269   -3.3221   -1.1473 H         1 UNK         0.1085 
     77 H77        28.4462   -6.3493   -1.0935 H         1 UNK         0.0836 
     78 H78        29.3751   -5.2215   -2.0425 H         1 UNK         0.0836 
     79 H79        32.0402   -4.0210    0.3404 H         1 UNK         0.0731 
     80 H80        31.8243   -5.0888   -1.0228 H         1 UNK         0.0731 
     81 H81        32.0384   -3.9235   -3.0473 H         1 UNK         0.1312 
     82 H82        30.5598    0.0626   -3.5356 H         1 UNK         0.1406 
     83 H83        30.0759   -1.9617    0.2155 H         1 UNK         0.1631 
     84 H84        29.4565    0.3135    0.0656 H         1 UNK         0.0717 
     85 H85        30.1163    1.2978   -1.2038 H         1 UNK         0.0717 
     86 H86        27.5508    2.4233   -3.2399 H         1 UNK         0.0934 
     87 H87        29.1702    1.8064   -3.2346 H         1 UNK         0.0934 
     88 H88        28.0345   -0.4261   -4.2098 H         1 UNK         0.0739 
     89 H89        25.8366   -0.2829   -4.4172 H         1 UNK         0.3093 
     90 H90        23.5585    1.5265   -4.6629 H         1 UNK         0.0818 
     91 H91        22.5060    1.8562   -6.9374 H         1 UNK         0.0819 
     92 H92        23.5932    3.1628   -6.5071 H         1 UNK         0.0819 
     93 H93        24.1143    1.9353   -7.6552 H         1 UNK         0.0819 
     94 H94        24.6790   -0.6340   -6.3154 H         1 UNK         0.3041 
     95 H95        22.4213   -2.8964   -4.8463 H         1 UNK         0.0784 
     96 H96        21.2709   -2.3795   -7.0203 H         1 UNK         0.0793 
     97 H97        22.8238   -2.3985   -7.8438 H         1 UNK         0.0793 
     98 H98        22.1924   -3.8694   -7.1014 H         1 UNK         0.0793 
     99 H99        24.4741   -3.7457   -6.3376 H         1 UNK         0.3024 
    100 H100       26.1786   -4.7585   -5.1003 H         1 UNK         0.1171 
    101 H101       28.3489   -3.9166   -5.9901 H         1 UNK         0.0786 
    102 H102       27.0133   -3.2127   -6.8844 H         1 UNK         0.0786 
    103 H103       27.8626   -2.2525   -5.6840 H         1 UNK         0.0786 
    104 H104       28.0029   -3.2069   -3.4229 H         1 UNK         0.2977 
    105 H105       29.4888    2.4738   -4.9012 H         1 UNK         0.3127 
    106 H106       30.7795    1.4772   -7.2116 H         1 UNK         0.0770 
    107 H107       30.7115    4.2957   -6.0113 H         1 UNK         0.0814 
    108 H108       31.8320    3.7609   -7.2535 H         1 UNK         0.0814 
    109 H109       31.8912    3.0297   -5.6593 H         1 UNK         0.0814 
    110 H110       27.8122    3.3806   -6.9334 H         1 UNK         0.2983 
    111 H111       27.8600    4.3726   -9.6596 H         1 UNK         0.0947 
    112 H112       25.5054    4.9956   -9.1966 H         1 UNK         0.0806 
    113 H113       26.5471    5.5104   -7.8800 H         1 UNK         0.0806 
    114 H114       25.5275    4.0857   -7.6962 H         1 UNK         0.0806 
    115 H115       27.1174    1.3002   -8.2358 H         1 UNK         0.3000 
    116 H116       25.7481    0.3217  -10.7073 H         1 UNK         0.0850 
    117 H117       25.3249   -1.7283   -9.3290 H         1 UNK         0.0810 
    118 H118       24.5965   -0.2941   -8.6329 H         1 UNK         0.0810 
    119 H119       26.0823   -0.9577   -7.9424 H         1 UNK         0.0810 
    120 H120       28.4735   -0.4440   -8.4681 H         1 UNK         0.3040 
    121 H121       29.4341   -2.5502  -10.2101 H         1 UNK         0.0766 
    122 H122       31.1286   -2.8117   -8.3574 H         1 UNK         0.0812 
    123 H123       30.4852   -1.3593   -7.5985 H         1 UNK         0.0812 
    124 H124       29.4765   -2.7941   -7.7753 H         1 UNK         0.0812 
    125 H125       30.2811    0.8430   -9.9466 H         1 UNK         0.3205 
    126 H126       31.9330    2.1345  -10.6299 H         1 UNK         0.0754 
    127 H127       33.2082    1.6508  -12.6491 H         1 UNK         0.0769 
    128 H128       31.5557    1.1123  -12.8922 H         1 UNK         0.0769 
    129 H129       32.8300   -0.0606  -12.5602 H         1 UNK         0.0769 
    130 H130       32.2943    0.3068   -8.3432 H         1 UNK         0.2981 
    131 H131       35.0763   -0.4280   -8.2778 H         1 UNK         0.0541 
    132 H132       33.8712    2.6952   -7.9496 H         1 UNK         0.3459 
    133 H133       35.1227    3.2986   -6.8924 H         1 UNK         0.3459 
    134 H134       34.6435   -1.3449   -6.0823 H         1 UNK         0.0612 
    135 H135       33.4059   -1.8395   -7.1981 H         1 UNK         0.0612 
    136 H136       32.6312   -2.7229   -4.9890 H         1 UNK         0.0624 
    137 H137       31.0348   -2.2774   -5.5377 H         1 UNK         0.0624 
@<TRIPOS>BOND
     1    1    2 1    
     2    1   72 1    
     3    1   73 1    
     4    1   74 1    
     5    2    3 2    
     6    2    4 am   BACKBONE|DICT|INTERRES
     7    4    5 1    
     8    4   75 1    
     9    5    6 1    
    10    5   35 1    
    11    5   76 1    
    12    6    7 1    
    13    6   77 1    
    14    6   78 1    
    15    7    8 1    
    16    8    9 1    
    17    8   79 1    
    18    8   80 1    
    19    9   10 ar   
    20    9   14 ar   
    21   10   11 ar   
    22   10   81 1    
    23   11   12 ar   
    24   11   71 1    
    25   12   13 ar   
    26   12   82 1    
    27   13   14 ar   
    28   13   15 1    
    29   14   83 1    
    30   15   16 1    
    31   15   84 1    
    32   15   85 1    
    33   16   17 1    
    34   17   18 1    
    35   17   86 1    
    36   17   87 1    
    37   18   19 1    
    38   18   37 1    
    39   18   88 1    
    40   19   20 am   BACKBONE|DICT|INTERRES
    41   19   89 1    
    42   20   21 2    
    43   20   22 1    
    44   22   23 1    
    45   22   24 1    
    46   22   90 1    
    47   23   91 1    
    48   23   92 1    
    49   23   93 1    
    50   24   25 am   BACKBONE|DICT|INTERRES
    51   24   94 1    
    52   25   26 2    
    53   25   27 1    
    54   27   28 1    
    55   27   29 1    
    56   27   95 1    
    57   28   96 1    
    58   28   97 1    
    59   28   98 1    
    60   29   30 am   BACKBONE|DICT|INTERRES
    61   29   99 1    
    62   30   31 2    
    63   30   32 1    
    64   32   33 1    
    65   32   34 1    
    66   32  100 1    
    67   33  101 1    
    68   33  102 1    
    69   33  103 1    
    70   34   35 am   BACKBONE|DICT|INTERRES
    71   34  104 1    
    72   35   36 2    
    73   37   38 2    
    74   37   39 am   BACKBONE|DICT|INTERRES
    75   39   40 1    
    76   39  105 1    
    77   40   41 1    
    78   40   42 1    
    79   40  106 1    
    80   41  107 1    
    81   41  108 1    
    82   41  109 1    
    83   42   43 2    
    84   42   44 am   BACKBONE|DICT|INTERRES
    85   44   45 1    
    86   44  110 1    
    87   45   46 1    
    88   45   47 1    
    89   45  111 1    
    90   46  112 1    
    91   46  113 1    
    92   46  114 1    
    93   47   48 2    
    94   47   49 am   BACKBONE|DICT|INTERRES
    95   49   50 1    
    96   49  115 1    
    97   50   51 1    
    98   50   52 1    
    99   50  116 1    
   100   51  117 1    
   101   51  118 1    
   102   51  119 1    
   103   52   53 2    
   104   52   54 am   BACKBONE|DICT|INTERRES
   105   54   55 1    
   106   54  120 1    
   107   55   56 1    
   108   55   57 1    
   109   55  121 1    
   110   56  122 1    
   111   56  123 1    
   112   56  124 1    
   113   57   58 2    
   114   57   59 am   BACKBONE|DICT|INTERRES
   115   59   60 1    
   116   59  125 1    
   117   60   61 1    
   118   60   62 1    
   119   60  126 1    
   120   61  127 1    
   121   61  128 1    
   122   61  129 1    
   123   62   63 2    
   124   62   64 am   BACKBONE|DICT|INTERRES
   125   64   65 1    
   126   64  130 1    
   127   65   66 1    
   128   65   69 1    
   129   65  131 1    
   130   66   67 am   BACKBONE|DICT|INTERRES
   131   66   68 2    
   132   67  132 1    
   133   67  133 1    
   134   69   70 1    
   135   69  134 1    
   136   69  135 1    
   137   70   71 1    
   138   71  136 1    
   139   71  137 1    
@<TRIPOS>SUBSTRUCTURE
     1 UNK         1 GROUP             0       ****    0 ROOT    
