@<TRIPOS>MOLECULE
3R137
137   139    1
SMALL
USER_CHARGES


@<TRIPOS>ATOM
      1 CA         28.4456   -6.8742   -6.0086 C.3       0 UNK        -0.2020 
      2 C          28.9800   -5.6197   -5.3242 C.2       0 UNK         0.4855 
      3 O          29.9537   -5.0401   -5.7981 O.2       0 UNK        -0.5197 
      4 N          28.3931   -5.1595   -4.2109 N.am      1 UNK        -0.4892 
      5 CA         27.2022   -5.6875   -3.5304 C.3       1 UNK         0.0835 
      6 C6         27.0894   -5.1313   -2.0849 C.3       12 UNK        -0.0855 
      7 S7         27.2410   -3.3057   -1.9796 S.3       12 UNK        -0.2931 
      8 C8         28.8880   -3.1153   -1.2206 C.3       12 UNK         0.0378 
      9 C9         29.6943   -2.0204   -1.9023 C.ar      12 UNK        -0.0802 
     10 C10        30.4863   -2.3248   -3.0142 C.ar      12 UNK        -0.0944 
     11 C11        31.2517   -1.3332   -3.6319 C.ar      12 UNK        -0.0787 
     12 C12        31.2219   -0.0277   -3.1311 C.ar      12 UNK        -0.0862 
     13 C13        30.4564    0.2842   -2.0045 C.ar      12 UNK        -0.0733 
     14 C14        29.6834   -0.7140   -1.4013 C.ar      12 UNK        -0.0832 
     15 C15        30.5135    1.6822   -1.4039 C.3       12 UNK         0.0240 
     16 S16        29.0192    2.6558   -1.7551 S.3       12 UNK        -0.2522 
     17 C17        29.2177    3.0661   -3.5251 C.3       12 UNK        -0.0967 
     18 CA         28.3445    2.1812   -4.4486 C.3       5 UNK         0.0660 
     19 N          26.9527    2.0977   -3.9892 N.am      5 UNK        -0.4015 
     20 C          26.0519    1.2255   -4.4519 C.2       4 UNK         0.4946 
     21 O          26.2606    0.4474   -5.3863 O.2       4 UNK        -0.5353 
     22 CA         24.6817    1.2309   -3.7749 C.3       4 UNK         0.0277 
     23 CB         23.6490    2.0154   -4.6033 C.3       4 UNK        -0.1981 
     24 N          24.2781   -0.1599   -3.6296 N.am      4 UNK        -0.4209 
     25 C          23.4254   -0.6433   -2.7206 C.2       3 UNK         0.4942 
     26 O          22.7829    0.0694   -1.9476 O.2       3 UNK        -0.5208 
     27 CA         23.3035   -2.1760   -2.6069 C.3       3 UNK         0.0250 
     28 CB         21.8390   -2.6454   -2.4726 C.3       3 UNK        -0.1990 
     29 N          24.0269   -2.9189   -3.6495 N.am      3 UNK        -0.4232 
     30 C          23.7159   -3.0604   -4.9485 C.2       2 UNK         0.4993 
     31 O          22.7154   -2.5702   -5.4714 O.2       2 UNK        -0.5286 
     32 CA         24.7044   -3.8532   -5.8306 C.3       2 UNK         0.0209 
     33 CB         25.1933   -2.9910   -7.0041 C.3       2 UNK        -0.1931 
     34 N          25.8771   -4.3425   -5.0986 N.am      2 UNK        -0.4546 
     35 C          25.8987   -5.4271   -4.3126 C.2       1 UNK         0.5154 
     36 O          24.9425   -6.1895   -4.1747 O.2       1 UNK        -0.5181 
     37 C          28.4503    2.6490   -5.9149 C.2       5 UNK         0.5014 
     38 O          29.3488    2.2066   -6.6324 O.2       5 UNK        -0.5248 
     39 N          27.5158    3.5137   -6.3389 N.am      6 UNK        -0.4434 
     40 CA         27.3758    3.9807   -7.7191 C.3       6 UNK         0.0363 
     41 CB         26.4441    5.2021   -7.7600 C.3       6 UNK        -0.1936 
     42 C          26.8649    2.8783   -8.6605 C.2       6 UNK         0.5081 
     43 O          27.3528    2.7751   -9.7850 O.2       6 UNK        -0.5248 
     44 N          25.9295    2.0448   -8.1793 N.am      7 UNK        -0.4718 
     45 CA         25.4251    0.8701   -8.9014 C.3       7 UNK         0.0273 
     46 CB         24.1534    0.3404   -8.2205 C.3       7 UNK        -0.1935 
     47 C          26.4907   -0.2326   -9.0186 C.2       7 UNK         0.5018 
     48 O          26.5628   -0.9033  -10.0478 O.2       7 UNK        -0.5186 
     49 N          27.3370   -0.3493   -7.9860 N.am      8 UNK        -0.4240 
     50 CA         28.5411   -1.1816   -7.9598 C.3       8 UNK         0.0235 
     51 CB         28.9045   -1.4777   -6.4947 C.3       8 UNK        -0.2000 
     52 C          29.7353   -0.5584   -8.7170 C.2       8 UNK         0.4941 
     53 O          30.8276   -1.1253   -8.6674 O.2       8 UNK        -0.5273 
     54 N          29.5298    0.5915   -9.3827 N.am      9 UNK        -0.4262 
     55 CA         30.4735    1.3277  -10.2336 C.3       9 UNK         0.0264 
     56 CB         30.7151    0.5527  -11.5461 C.3       9 UNK        -0.1955 
     57 C          31.7846    1.7088   -9.5211 C.2       9 UNK         0.5031 
     58 O          32.8565    1.6223  -10.1255 O.2       9 UNK        -0.5390 
     59 N          31.6859    2.0703   -8.2313 N.am      10 UNK        -0.4204 
     60 CA         32.7971    2.3546   -7.3112 C.3       10 UNK         0.0237 
     61 CB         33.4882    3.6824   -7.6867 C.3       10 UNK        -0.1985 
     62 C          33.7921    1.1810   -7.1680 C.2       10 UNK         0.4970 
     63 O          34.9686    1.4063   -6.8805 O.2       10 UNK        -0.4914 
     64 N          33.2901   -0.0429   -7.3792 N.am      11 UNK        -0.4285 
     65 CA         34.0080   -1.3243   -7.3805 C.3       11 UNK         0.1007 
     66 C          34.8866   -1.5454   -8.6496 C.2       11 UNK         0.5703 
     67 N          34.7623   -0.7407   -9.7006 N.am      11 UNK        -0.7361 
     68 O          35.6790   -2.4836   -8.6989 O.2       11 UNK        -0.4986 
     69 C69        34.7742   -1.6304   -6.0571 C.3       12 UNK        -0.0947 
     70 S70        33.8829   -1.4109   -4.4705 S.3       12 UNK        -0.2240 
     71 C71        32.1141   -1.6650   -4.8394 C.3       12 UNK         0.0194 
     72 H72        28.3468   -7.7001   -5.3055 H         1 UNK         0.0906 
     73 H73        27.4776   -6.6826   -6.4702 H         1 UNK         0.0906 
     74 H74        29.1282   -7.1957   -6.7951 H         1 UNK         0.0906 
     75 H75        28.7640   -4.3214   -3.7875 H         1 UNK         0.3140 
     76 H76        27.3045   -6.7715   -3.4509 H         1 UNK         0.1085 
     77 H77        27.8506   -5.6001   -1.4601 H         1 UNK         0.0836 
     78 H78        26.1419   -5.4254   -1.6277 H         1 UNK         0.0836 
     79 H79        29.4503   -4.0486   -1.2703 H         1 UNK         0.0731 
     80 H80        28.7661   -2.8948   -0.1590 H         1 UNK         0.0731 
     81 H81        30.5184   -3.3359   -3.3951 H         1 UNK         0.1312 
     82 H82        31.8242    0.7369   -3.6027 H         1 UNK         0.1406 
     83 H83        29.0876   -0.4760   -0.5302 H         1 UNK         0.1631 
     84 H84        31.3936    2.2237   -1.7544 H         1 UNK         0.0717 
     85 H85        30.6255    1.5987   -0.3219 H         1 UNK         0.0717 
     86 H86        28.9575    4.1197   -3.6452 H         1 UNK         0.0934 
     87 H87        30.2702    2.9847   -3.8038 H         1 UNK         0.0934 
     88 H88        28.7489    1.1676   -4.4103 H         1 UNK         0.0739 
     89 H89        26.7132    2.6877   -3.2051 H         1 UNK         0.3093 
     90 H90        24.7742    1.6816   -2.7841 H         1 UNK         0.0818 
     91 H91        23.9650    3.0487   -4.7506 H         1 UNK         0.0819 
     92 H92        23.4993    1.5726   -5.5876 H         1 UNK         0.0819 
     93 H93        22.6809    2.0426   -4.1030 H         1 UNK         0.0819 
     94 H94        24.7869   -0.8013   -4.2242 H         1 UNK         0.3041 
     95 H95        23.8074   -2.4343   -1.6741 H         1 UNK         0.0784 
     96 H96        21.3748   -2.2230   -1.5806 H         1 UNK         0.0793 
     97 H97        21.2323   -2.3382   -3.3247 H         1 UNK         0.0793 
     98 H98        21.7752   -3.7301   -2.3863 H         1 UNK         0.0793 
     99 H99        24.8926   -3.3409   -3.3419 H         1 UNK         0.3024 
    100 H100       24.1590   -4.7092   -6.2350 H         1 UNK         0.1171 
    101 H101       25.6738   -2.0804   -6.6479 H         1 UNK         0.0786 
    102 H102       25.9065   -3.5274   -7.6303 H         1 UNK         0.0786 
    103 H103       24.3626   -2.6937   -7.6449 H         1 UNK         0.0786 
    104 H104       26.7138   -3.7786   -5.1459 H         1 UNK         0.2977 
    105 H105       26.8278    3.8380   -5.6753 H         1 UNK         0.3127 
    106 H106       28.3610    4.2909   -8.0748 H         1 UNK         0.0770 
    107 H107       25.4426    4.9630   -7.3999 H         1 UNK         0.0814 
    108 H108       26.3420    5.5789   -8.7788 H         1 UNK         0.0814 
    109 H109       26.8340    6.0191   -7.1527 H         1 UNK         0.0814 
    110 H110       25.6087    2.1680   -7.2304 H         1 UNK         0.2983 
    111 H111       25.1621    1.1827   -9.9147 H         1 UNK         0.0947 
    112 H112       23.7348   -0.4966   -8.7806 H         1 UNK         0.0806 
    113 H113       23.3820    1.1085   -8.1662 H         1 UNK         0.0806 
    114 H114       24.3487   -0.0138   -7.2083 H         1 UNK         0.0806 
    115 H115       27.1415    0.1889   -7.1466 H         1 UNK         0.3000 
    116 H116       28.3121   -2.1306   -8.4488 H         1 UNK         0.0850 
    117 H117       29.2528   -0.5833   -5.9785 H         1 UNK         0.0810 
    118 H118       29.6984   -2.2228   -6.4358 H         1 UNK         0.0810 
    119 H119       28.0546   -1.8723   -5.9388 H         1 UNK         0.0810 
    120 H120       28.6080    1.0060   -9.3249 H         1 UNK         0.3040 
    121 H121       29.9860    2.2692  -10.4897 H         1 UNK         0.0766 
    122 H122       31.2427   -0.3852  -11.3680 H         1 UNK         0.0812 
    123 H123       29.7756    0.3195  -12.0472 H         1 UNK         0.0812 
    124 H124       31.3160    1.1377  -12.2434 H         1 UNK         0.0812 
    125 H125       30.7600    2.0824   -7.8013 H         1 UNK         0.3205 
    126 H126       32.3448    2.4839   -6.3268 H         1 UNK         0.0754 
    127 H127       34.2202    3.9715   -6.9317 H         1 UNK         0.0769 
    128 H128       32.7669    4.4959   -7.7640 H         1 UNK         0.0769 
    129 H129       34.0146    3.6085   -8.6389 H         1 UNK         0.0769 
    130 H130       32.3272   -0.1185   -7.6885 H         1 UNK         0.2981 
    131 H131       33.2251   -2.0775   -7.4706 H         1 UNK         0.0541 
    132 H132       35.3313   -0.9070  -10.5148 H         1 UNK         0.3459 
    133 H133       34.1070    0.0332   -9.6945 H         1 UNK         0.3459 
    134 H134       35.6775   -1.0210   -6.0026 H         1 UNK         0.0612 
    135 H135       35.1236   -2.6640   -6.0728 H         1 UNK         0.0612 
    136 H136       31.7795   -1.0269   -5.6522 H         1 UNK         0.0624 
    137 H137       31.9607   -2.6953   -5.1648 H         1 UNK         0.0624 
@<TRIPOS>BOND
     1    1    2 1    
     2    1   72 1    
     3    1   73 1    
     4    1   74 1    
     5    2    3 2    
     6    2    4 am   BACKBONE|DICT|INTERRES
     7    4    5 1    
     8    4   75 1    
     9    5    6 1    
    10    5   35 1    
    11    5   76 1    
    12    6    7 1    
    13    6   77 1    
    14    6   78 1    
    15    7    8 1    
    16    8    9 1    
    17    8   79 1    
    18    8   80 1    
    19    9   10 ar   
    20    9   14 ar   
    21   10   11 ar   
    22   10   81 1    
    23   11   12 ar   
    24   11   71 1    
    25   12   13 ar   
    26   12   82 1    
    27   13   14 ar   
    28   13   15 1    
    29   14   83 1    
    30   15   16 1    
    31   15   84 1    
    32   15   85 1    
    33   16   17 1    
    34   17   18 1    
    35   17   86 1    
    36   17   87 1    
    37   18   19 1    
    38   18   37 1    
    39   18   88 1    
    40   19   20 am   BACKBONE|DICT|INTERRES
    41   19   89 1    
    42   20   21 2    
    43   20   22 1    
    44   22   23 1    
    45   22   24 1    
    46   22   90 1    
    47   23   91 1    
    48   23   92 1    
    49   23   93 1    
    50   24   25 am   BACKBONE|DICT|INTERRES
    51   24   94 1    
    52   25   26 2    
    53   25   27 1    
    54   27   28 1    
    55   27   29 1    
    56   27   95 1    
    57   28   96 1    
    58   28   97 1    
    59   28   98 1    
    60   29   30 am   BACKBONE|DICT|INTERRES
    61   29   99 1    
    62   30   31 2    
    63   30   32 1    
    64   32   33 1    
    65   32   34 1    
    66   32  100 1    
    67   33  101 1    
    68   33  102 1    
    69   33  103 1    
    70   34   35 am   BACKBONE|DICT|INTERRES
    71   34  104 1    
    72   35   36 2    
    73   37   38 2    
    74   37   39 am   BACKBONE|DICT|INTERRES
    75   39   40 1    
    76   39  105 1    
    77   40   41 1    
    78   40   42 1    
    79   40  106 1    
    80   41  107 1    
    81   41  108 1    
    82   41  109 1    
    83   42   43 2    
    84   42   44 am   BACKBONE|DICT|INTERRES
    85   44   45 1    
    86   44  110 1    
    87   45   46 1    
    88   45   47 1    
    89   45  111 1    
    90   46  112 1    
    91   46  113 1    
    92   46  114 1    
    93   47   48 2    
    94   47   49 am   BACKBONE|DICT|INTERRES
    95   49   50 1    
    96   49  115 1    
    97   50   51 1    
    98   50   52 1    
    99   50  116 1    
   100   51  117 1    
   101   51  118 1    
   102   51  119 1    
   103   52   53 2    
   104   52   54 am   BACKBONE|DICT|INTERRES
   105   54   55 1    
   106   54  120 1    
   107   55   56 1    
   108   55   57 1    
   109   55  121 1    
   110   56  122 1    
   111   56  123 1    
   112   56  124 1    
   113   57   58 2    
   114   57   59 am   BACKBONE|DICT|INTERRES
   115   59   60 1    
   116   59  125 1    
   117   60   61 1    
   118   60   62 1    
   119   60  126 1    
   120   61  127 1    
   121   61  128 1    
   122   61  129 1    
   123   62   63 2    
   124   62   64 am   BACKBONE|DICT|INTERRES
   125   64   65 1    
   126   64  130 1    
   127   65   66 1    
   128   65   69 1    
   129   65  131 1    
   130   66   67 am   BACKBONE|DICT|INTERRES
   131   66   68 2    
   132   67  132 1    
   133   67  133 1    
   134   69   70 1    
   135   69  134 1    
   136   69  135 1    
   137   70   71 1    
   138   71  136 1    
   139   71  137 1    
@<TRIPOS>SUBSTRUCTURE
     1 UNK         1 GROUP             0       ****    0 ROOT    
