@<TRIPOS>MOLECULE
3R137
137   139    1
SMALL
USER_CHARGES


@<TRIPOS>ATOM
      1 CA         25.4171   -4.5535   -3.6016 C.3       0 UNK        -0.2020 
      2 C          25.4191   -3.4219   -2.5882 C.2       0 UNK         0.4855 
      3 O          24.3617   -3.0642   -2.0680 O.2       0 UNK        -0.5197 
      4 N          26.5959   -2.8501   -2.3037 N.am      1 UNK        -0.4892 
      5 CA         26.7809   -1.7322   -1.3715 C.3       1 UNK         0.0835 
      6 C6         28.2727   -1.4883   -1.0318 C.3       12 UNK        -0.0855 
      7 S7         28.9777   -2.8355   -0.0248 S.3       12 UNK        -0.2931 
      8 C8         30.7576   -2.7066   -0.4317 C.3       12 UNK         0.0378 
      9 C9         31.1478   -3.1158   -1.8545 C.ar      12 UNK        -0.0802 
     10 C10        32.4018   -2.7358   -2.3455 C.ar      12 UNK        -0.0944 
     11 C11        32.8066   -3.0910   -3.6372 C.ar      12 UNK        -0.0787 
     12 C12        31.9392   -3.8247   -4.4522 C.ar      12 UNK        -0.0862 
     13 C13        30.6923   -4.2286   -3.9691 C.ar      12 UNK        -0.0733 
     14 C14        30.3096   -3.8833   -2.6716 C.ar      12 UNK        -0.0832 
     15 C15        29.7523   -5.0583   -4.8256 C.3       12 UNK         0.0240 
     16 S16        28.3973   -4.0373   -5.4722 S.3       12 UNK        -0.2522 
     17 C17        29.0342   -3.5834   -7.1186 C.3       12 UNK        -0.0967 
     18 CA         28.4446   -2.2905   -7.7516 C.3       5 UNK         0.0660 
     19 N          26.9755   -2.1935   -7.7426 N.am      5 UNK        -0.4015 
     20 C          26.1547   -1.7578   -6.7731 C.2       4 UNK         0.4946 
     21 O          26.5264   -1.2843   -5.6973 O.2       4 UNK        -0.5353 
     22 CA         24.6489   -1.8852   -7.0488 C.3       4 UNK         0.0277 
     23 CB         24.2817   -3.2823   -7.6030 C.3       4 UNK        -0.1981 
     24 N          23.9208   -1.6203   -5.8070 N.am      4 UNK        -0.4209 
     25 C          22.6024   -1.4187   -5.6992 C.2       3 UNK         0.4942 
     26 O          21.8420   -1.3538   -6.6661 O.2       3 UNK        -0.5208 
     27 CA         22.0100   -1.3018   -4.2855 C.3       3 UNK         0.0250 
     28 CB         21.4880   -2.6709   -3.8202 C.3       3 UNK        -0.1990 
     29 N          22.9503   -0.7798   -3.2895 N.am      3 UNK        -0.4232 
     30 C          23.1444    0.5286   -3.0646 C.2       2 UNK         0.4993 
     31 O          22.5971    1.4151   -3.7208 O.2       2 UNK        -0.5286 
     32 CA         24.0645    0.9393   -1.8994 C.3       2 UNK         0.0209 
     33 CB         23.2270    1.4623   -0.7203 C.3       2 UNK        -0.1931 
     34 N          24.9107   -0.1557   -1.4249 N.am      2 UNK        -0.4546 
     35 C          26.1097   -0.4633   -1.9339 C.2       1 UNK         0.5154 
     36 O          26.6661    0.1861   -2.8191 O.2       1 UNK        -0.5181 
     37 C          29.1643   -0.9977   -7.3296 C.2       5 UNK         0.5014 
     38 O          29.5255   -0.2074   -8.2027 O.2       5 UNK        -0.5248 
     39 N          29.3429   -0.7696   -6.0238 N.am      6 UNK        -0.4434 
     40 CA         29.8870    0.4820   -5.4892 C.3       6 UNK         0.0363 
     41 CB         30.1608    0.3431   -3.9863 C.3       6 UNK        -0.1936 
     42 C          28.9824    1.6907   -5.7835 C.2       6 UNK         0.5081 
     43 O          29.4957    2.7567   -6.1215 O.2       6 UNK        -0.5248 
     44 N          27.6579    1.4872   -5.7433 N.am      7 UNK        -0.4718 
     45 CA         26.6582    2.4839   -6.1427 C.3       7 UNK         0.0273 
     46 CB         25.2771    2.0366   -5.6498 C.3       7 UNK        -0.1935 
     47 C          26.6267    2.7443   -7.6596 C.2       7 UNK         0.5018 
     48 O          26.1866    3.8143   -8.0779 O.2       7 UNK        -0.5186 
     49 N          27.1075    1.7760   -8.4504 N.am      8 UNK        -0.4240 
     50 CA         27.2761    1.8760   -9.9018 C.3       8 UNK         0.0235 
     51 CB         27.0111    0.4933  -10.5249 C.3       8 UNK        -0.2000 
     52 C          28.6715    2.3996  -10.2987 C.2       8 UNK         0.4941 
     53 O          28.9390    2.5230  -11.4943 O.2       8 UNK        -0.5273 
     54 N          29.5361    2.6754   -9.3076 N.am      9 UNK        -0.4262 
     55 CA         30.9366    3.0975   -9.4261 C.3       9 UNK         0.0264 
     56 CB         31.0456    4.4839  -10.0968 C.3       9 UNK        -0.1955 
     57 C          31.8542    2.0408  -10.0766 C.2       9 UNK         0.5031 
     58 O          32.8787    2.4030  -10.6583 O.2       9 UNK        -0.5390 
     59 N          31.4961    0.7539   -9.9521 N.am      10 UNK        -0.4204 
     60 CA         32.3170   -0.3776  -10.3932 C.3       10 UNK         0.0237 
     61 CB         31.4222   -1.6066  -10.6237 C.3       10 UNK        -0.1985 
     62 C          33.4322   -0.7020   -9.3845 C.2       10 UNK         0.4970 
     63 O          34.4918   -1.1801   -9.7905 O.2       10 UNK        -0.4914 
     64 N          33.1758   -0.4336   -8.0970 N.am      11 UNK        -0.4285 
     65 CA         34.1540   -0.5140   -7.0062 C.3       11 UNK         0.1007 
     66 C          35.2386    0.5918   -7.1415 C.2       11 UNK         0.5703 
     67 N          36.5115    0.2438   -7.0084 N.am      11 UNK        -0.7361 
     68 O          34.9274    1.7652   -7.3381 O.2       11 UNK        -0.4986 
     69 C69        33.4284   -0.4605   -5.6367 C.3       12 UNK        -0.0947 
     70 S70        34.4830   -0.9344   -4.2287 S.3       12 UNK        -0.2240 
     71 C71        34.2010   -2.7297   -4.1335 C.3       12 UNK         0.0194 
     72 H72        24.5623   -5.2081   -3.4417 H         1 UNK         0.0906 
     73 H73        25.3562   -4.1528   -4.6109 H         1 UNK         0.0906 
     74 H74        26.3203   -5.1568   -3.5226 H         1 UNK         0.0906 
     75 H75        27.4197   -3.1382   -2.8104 H         1 UNK         0.3140 
     76 H76        26.2730   -1.9910   -0.4395 H         1 UNK         0.1085 
     77 H77        28.8554   -1.3803   -1.9460 H         1 UNK         0.0836 
     78 H78        28.3990   -0.5585   -0.4736 H         1 UNK         0.0836 
     79 H79        31.3122   -3.3347    0.2666 H         1 UNK         0.0731 
     80 H80        31.0794   -1.6807   -0.2456 H         1 UNK         0.0731 
     81 H81        33.0739   -2.1667   -1.7174 H         1 UNK         0.1312 
     82 H82        32.2436   -4.1033   -5.4517 H         1 UNK         0.1406 
     83 H83        29.3511   -4.2222   -2.3073 H         1 UNK         0.1631 
     84 H84        29.3274   -5.8612   -4.2214 H         1 UNK         0.0717 
     85 H85        30.2860   -5.5457   -5.6429 H         1 UNK         0.0717 
     86 H86        28.8163   -4.4261   -7.7766 H         1 UNK         0.0934 
     87 H87        30.1240   -3.5259   -7.0826 H         1 UNK         0.0934 
     88 H88        28.6768   -2.3752   -8.8147 H         1 UNK         0.0739 
     89 H89        26.5370   -2.5424   -8.5821 H         1 UNK         0.3093 
     90 H90        24.3792   -1.1194   -7.7788 H         1 UNK         0.0818 
     91 H91        24.7384   -3.4646   -8.5758 H         1 UNK         0.0819 
     92 H92        24.6072   -4.0789   -6.9336 H         1 UNK         0.0819 
     93 H93        23.2074   -3.3928   -7.7465 H         1 UNK         0.0819 
     94 H94        24.5117   -1.5687   -4.9859 H         1 UNK         0.3041 
     95 H95        21.1526   -0.6281   -4.3472 H         1 UNK         0.0784 
     96 H96        20.7309   -3.0529   -4.5063 H         1 UNK         0.0793 
     97 H97        22.2847   -3.4134   -3.7715 H         1 UNK         0.0793 
     98 H98        21.0283   -2.6068   -2.8340 H         1 UNK         0.0793 
     99 H99        23.4408   -1.4649   -2.7206 H         1 UNK         0.3024 
    100 H100       24.6970    1.7568   -2.2527 H         1 UNK         0.1171 
    101 H101       23.8622    1.8067    0.0961 H         1 UNK         0.0786 
    102 H102       22.6085    2.3077   -1.0252 H         1 UNK         0.0786 
    103 H103       22.5590    0.6951   -0.3267 H         1 UNK         0.0786 
    104 H104       24.5089   -0.7692   -0.7290 H         1 UNK         0.2977 
    105 H105       28.9364   -1.4264   -5.3691 H         1 UNK         0.3127 
    106 H106       30.8346    0.6673   -5.9943 H         1 UNK         0.0770 
    107 H107       30.7067    1.2095   -3.6114 H         1 UNK         0.0814 
    108 H108       30.7600   -0.5406   -3.7649 H         1 UNK         0.0814 
    109 H109       29.2326    0.2784   -3.4216 H         1 UNK         0.0814 
    110 H110       27.3113    0.5742   -5.4563 H         1 UNK         0.2983 
    111 H111       26.9067    3.4285   -5.6537 H         1 UNK         0.0947 
    112 H112       24.5142    2.7816   -5.8799 H         1 UNK         0.0806 
    113 H113       25.2815    1.9004   -4.5704 H         1 UNK         0.0806 
    114 H114       24.9653    1.0971   -6.1053 H         1 UNK         0.0806 
    115 H115       27.4927    0.9521   -8.0111 H         1 UNK         0.3000 
    116 H116       26.5417    2.5758  -10.3063 H         1 UNK         0.0850 
    117 H117       27.0435    0.5445  -11.6140 H         1 UNK         0.0810 
    118 H118       26.0262    0.1154  -10.2503 H         1 UNK         0.0810 
    119 H119       27.7537   -0.2419  -10.2150 H         1 UNK         0.0810 
    120 H120       29.2180    2.5363   -8.3566 H         1 UNK         0.3040 
    121 H121       31.2968    3.2049   -8.4018 H         1 UNK         0.0766 
    122 H122       30.7775    4.4461  -11.1528 H         1 UNK         0.0812 
    123 H123       30.3965    5.2120   -9.6107 H         1 UNK         0.0812 
    124 H124       32.0641    4.8693  -10.0354 H         1 UNK         0.0812 
    125 H125       30.6476    0.5270   -9.4346 H         1 UNK         0.3205 
    126 H126       32.7878   -0.1193  -11.3442 H         1 UNK         0.0754 
    127 H127       31.9961   -2.4267  -11.0574 H         1 UNK         0.0769 
    128 H128       30.6063   -1.3820  -11.3112 H         1 UNK         0.0769 
    129 H129       30.9883   -1.9731   -9.6938 H         1 UNK         0.0769 
    130 H130       32.2848   -0.0221   -7.8676 H         1 UNK         0.2981 
    131 H131       34.6399   -1.4883   -7.0902 H         1 UNK         0.0541 
    132 H132       37.2236    0.9534   -7.0818 H         1 UNK         0.3459 
    133 H133       36.7736   -0.7130   -6.8294 H         1 UNK         0.3459 
    134 H134       32.5557   -1.1151   -5.6459 H         1 UNK         0.0612 
    135 H135       33.0520    0.5449   -5.4430 H         1 UNK         0.0612 
    136 H136       34.3977   -3.1727   -5.1109 H         1 UNK         0.0624 
    137 H137       34.9356   -3.1593   -3.4513 H         1 UNK         0.0624 
@<TRIPOS>BOND
     1    1    2 1    
     2    1   72 1    
     3    1   73 1    
     4    1   74 1    
     5    2    3 2    
     6    2    4 am   BACKBONE|DICT|INTERRES
     7    4    5 1    
     8    4   75 1    
     9    5    6 1    
    10    5   35 1    
    11    5   76 1    
    12    6    7 1    
    13    6   77 1    
    14    6   78 1    
    15    7    8 1    
    16    8    9 1    
    17    8   79 1    
    18    8   80 1    
    19    9   10 ar   
    20    9   14 ar   
    21   10   11 ar   
    22   10   81 1    
    23   11   12 ar   
    24   11   71 1    
    25   12   13 ar   
    26   12   82 1    
    27   13   14 ar   
    28   13   15 1    
    29   14   83 1    
    30   15   16 1    
    31   15   84 1    
    32   15   85 1    
    33   16   17 1    
    34   17   18 1    
    35   17   86 1    
    36   17   87 1    
    37   18   19 1    
    38   18   37 1    
    39   18   88 1    
    40   19   20 am   BACKBONE|DICT|INTERRES
    41   19   89 1    
    42   20   21 2    
    43   20   22 1    
    44   22   23 1    
    45   22   24 1    
    46   22   90 1    
    47   23   91 1    
    48   23   92 1    
    49   23   93 1    
    50   24   25 am   BACKBONE|DICT|INTERRES
    51   24   94 1    
    52   25   26 2    
    53   25   27 1    
    54   27   28 1    
    55   27   29 1    
    56   27   95 1    
    57   28   96 1    
    58   28   97 1    
    59   28   98 1    
    60   29   30 am   BACKBONE|DICT|INTERRES
    61   29   99 1    
    62   30   31 2    
    63   30   32 1    
    64   32   33 1    
    65   32   34 1    
    66   32  100 1    
    67   33  101 1    
    68   33  102 1    
    69   33  103 1    
    70   34   35 am   BACKBONE|DICT|INTERRES
    71   34  104 1    
    72   35   36 2    
    73   37   38 2    
    74   37   39 am   BACKBONE|DICT|INTERRES
    75   39   40 1    
    76   39  105 1    
    77   40   41 1    
    78   40   42 1    
    79   40  106 1    
    80   41  107 1    
    81   41  108 1    
    82   41  109 1    
    83   42   43 2    
    84   42   44 am   BACKBONE|DICT|INTERRES
    85   44   45 1    
    86   44  110 1    
    87   45   46 1    
    88   45   47 1    
    89   45  111 1    
    90   46  112 1    
    91   46  113 1    
    92   46  114 1    
    93   47   48 2    
    94   47   49 am   BACKBONE|DICT|INTERRES
    95   49   50 1    
    96   49  115 1    
    97   50   51 1    
    98   50   52 1    
    99   50  116 1    
   100   51  117 1    
   101   51  118 1    
   102   51  119 1    
   103   52   53 2    
   104   52   54 am   BACKBONE|DICT|INTERRES
   105   54   55 1    
   106   54  120 1    
   107   55   56 1    
   108   55   57 1    
   109   55  121 1    
   110   56  122 1    
   111   56  123 1    
   112   56  124 1    
   113   57   58 2    
   114   57   59 am   BACKBONE|DICT|INTERRES
   115   59   60 1    
   116   59  125 1    
   117   60   61 1    
   118   60   62 1    
   119   60  126 1    
   120   61  127 1    
   121   61  128 1    
   122   61  129 1    
   123   62   63 2    
   124   62   64 am   BACKBONE|DICT|INTERRES
   125   64   65 1    
   126   64  130 1    
   127   65   66 1    
   128   65   69 1    
   129   65  131 1    
   130   66   67 am   BACKBONE|DICT|INTERRES
   131   66   68 2    
   132   67  132 1    
   133   67  133 1    
   134   69   70 1    
   135   69  134 1    
   136   69  135 1    
   137   70   71 1    
   138   71  136 1    
   139   71  137 1    
@<TRIPOS>SUBSTRUCTURE
     1 UNK         1 GROUP             0       ****    0 ROOT    
