@<TRIPOS>MOLECULE
3R137
137   139    1
SMALL
USER_CHARGES


@<TRIPOS>ATOM
      1 CA         31.5167    2.4300   -3.0708 C.3       0 UNK        -0.2020 
      2 C          30.3015    1.5208   -2.9677 C.2       0 UNK         0.4855 
      3 O          29.4262    1.7636   -2.1374 O.2       0 UNK        -0.5197 
      4 N          30.2313    0.4964   -3.8261 N.am      1 UNK        -0.4892 
      5 CA         29.2021   -0.5557   -3.9248 C.3       1 UNK         0.0835 
      6 C6         29.0077   -1.3940   -2.6313 C.3       12 UNK        -0.0855 
      7 S7         30.5543   -2.1518   -2.0211 S.3       12 UNK        -0.2931 
      8 C8         30.2050   -3.9388   -2.1482 C.3       12 UNK         0.0378 
      9 C9         30.3009   -4.4579   -3.5778 C.ar      12 UNK        -0.0802 
     10 C10        31.5086   -4.3678   -4.2737 C.ar      12 UNK        -0.0944 
     11 C11        31.6178   -4.8384   -5.5856 C.ar      12 UNK        -0.0787 
     12 C12        30.5073   -5.4335   -6.1931 C.ar      12 UNK        -0.0862 
     13 C13        29.3027   -5.5688   -5.4951 C.ar      12 UNK        -0.0733 
     14 C14        29.2042   -5.0720   -4.1896 C.ar      12 UNK        -0.0832 
     15 C15        28.1215   -6.2864   -6.1392 C.3       12 UNK         0.0240 
     16 S16        27.1546   -5.1923   -7.2271 S.3       12 UNK        -0.2522 
     17 C17        26.5493   -3.9622   -6.0278 C.3       12 UNK        -0.0967 
     18 CA         25.0915   -3.4869   -6.2642 C.3       5 UNK         0.0660 
     19 N          24.5452   -2.8796   -5.0585 N.am      5 UNK        -0.4015 
     20 C          24.0345   -3.5248   -4.0057 C.2       4 UNK         0.4946 
     21 O          23.9307   -4.7507   -3.9420 O.2       4 UNK        -0.5353 
     22 CA         23.5831   -2.6720   -2.8047 C.3       4 UNK         0.0277 
     23 CB         24.5890   -2.8092   -1.6492 C.3       4 UNK        -0.1981 
     24 N          23.4298   -1.2512   -3.1245 N.am      4 UNK        -0.4209 
     25 C          22.4398   -0.7139   -3.8456 C.2       3 UNK         0.4942 
     26 O          21.4838   -1.3591   -4.2764 O.2       3 UNK        -0.5208 
     27 CA         22.5404    0.7891   -4.1666 C.3       3 UNK         0.0250 
     28 CB         22.0236    1.6441   -2.9927 C.3       3 UNK        -0.1990 
     29 N          23.8696    1.2356   -4.6195 N.am      3 UNK        -0.4232 
     30 C          25.0240    1.2768   -3.9372 C.2       2 UNK         0.4993 
     31 O          25.1468    0.9204   -2.7623 O.2       2 UNK        -0.5286 
     32 CA         26.2407    1.8276   -4.6983 C.3       2 UNK         0.0209 
     33 CB         26.3379    3.3518   -4.5193 C.3       2 UNK        -0.1931 
     34 N          27.4936    1.2162   -4.2530 N.am      2 UNK        -0.4546 
     35 C          27.8380   -0.0610   -4.4598 C.2       1 UNK         0.5154 
     36 O          27.1196   -0.8499   -5.0710 O.2       1 UNK        -0.5181 
     37 C          24.9783   -2.4526   -7.3988 C.2       5 UNK         0.5014 
     38 O          24.6210   -1.2949   -7.1566 O.2       5 UNK        -0.5248 
     39 N          25.3112   -2.8869   -8.6200 N.am      6 UNK        -0.4434 
     40 CA         25.4304   -2.0401   -9.8106 C.3       6 UNK         0.0363 
     41 CB         25.3641   -2.9299  -11.0628 C.3       6 UNK        -0.1936 
     42 C          26.7156   -1.1881   -9.8210 C.2       6 UNK         0.5081 
     43 O          26.8412   -0.2995  -10.6645 O.2       6 UNK        -0.5248 
     44 N          27.6463   -1.4597   -8.8949 N.am      7 UNK        -0.4718 
     45 CA         28.9287   -0.7781   -8.6977 C.3       7 UNK         0.0273 
     46 CB         29.8254   -1.6896   -7.8364 C.3       7 UNK        -0.1935 
     47 C          28.7844    0.6437   -8.1097 C.2       7 UNK         0.5018 
     48 O          29.4340    0.9709   -7.1153 O.2       7 UNK        -0.5186 
     49 N          27.9381    1.4716   -8.7357 N.am      8 UNK        -0.4240 
     50 CA         27.6621    2.8632   -8.3778 C.3       8 UNK         0.0235 
     51 CB         26.5671    3.4175   -9.3042 C.3       8 UNK        -0.2000 
     52 C          28.9358    3.7224   -8.4274 C.2       8 UNK         0.4941 
     53 O          29.4279    4.0170   -9.5183 O.2       8 UNK        -0.5273 
     54 N          29.4545    4.0604   -7.2376 N.am      9 UNK        -0.4262 
     55 CA         30.7226    4.7560   -6.9854 C.3       9 UNK         0.0264 
     56 CB         30.6777    6.2038   -7.5209 C.3       9 UNK        -0.1955 
     57 C          31.9618    3.9725   -7.4711 C.2       9 UNK         0.5031 
     58 O          32.9793    4.5882   -7.7965 O.2       9 UNK        -0.5390 
     59 N          31.8659    2.6373   -7.4954 N.am      10 UNK        -0.4204 
     60 CA         32.9451    1.7135   -7.8356 C.3       10 UNK         0.0237 
     61 CB         32.6004    1.0071   -9.1586 C.3       10 UNK        -0.1985 
     62 C          33.1278    0.7061   -6.6928 C.2       10 UNK         0.4970 
     63 O          32.2765    0.6193   -5.8044 O.2       10 UNK        -0.4914 
     64 N          34.2411   -0.0341   -6.7424 N.am      11 UNK        -0.4285 
     65 CA         34.6906   -0.9827   -5.7091 C.3       11 UNK         0.1007 
     66 C          35.1323   -0.2757   -4.3887 C.2       11 UNK         0.5703 
     67 N          35.3894   -1.0218   -3.3220 N.am      11 UNK        -0.7361 
     68 O          35.2958    0.9422   -4.3266 O.2       11 UNK        -0.4986 
     69 C69        33.6919   -2.1550   -5.4702 C.3       12 UNK        -0.0947 
     70 S70        33.2476   -3.0675   -6.9880 S.3       12 UNK        -0.2240 
     71 C71        32.9438   -4.7392   -6.3303 C.3       12 UNK         0.0194 
     72 H72        31.7944    2.8052   -2.0862 H         1 UNK         0.0906 
     73 H73        31.2974    3.2821   -3.7130 H         1 UNK         0.0906 
     74 H74        32.3783    1.9024   -3.4798 H         1 UNK         0.0906 
     75 H75        30.9597    0.4294   -4.5379 H         1 UNK         0.3140 
     76 H76        29.5825   -1.2363   -4.6870 H         1 UNK         0.1085 
     77 H77        28.2736   -2.1836   -2.8045 H         1 UNK         0.0836 
     78 H78        28.5945   -0.7755   -1.8328 H         1 UNK         0.0836 
     79 H79        30.9302   -4.4769   -1.5362 H         1 UNK         0.0731 
     80 H80        29.2267   -4.1499   -1.7134 H         1 UNK         0.0731 
     81 H81        32.3633   -3.9245   -3.7843 H         1 UNK         0.1312 
     82 H82        30.5845   -5.8119   -7.2034 H         1 UNK         0.1406 
     83 H83        28.2789   -5.1800   -3.6409 H         1 UNK         0.1631 
     84 H84        27.4663   -6.7094   -5.3759 H         1 UNK         0.0717 
     85 H85        28.4839   -7.1318   -6.7260 H         1 UNK         0.0717 
     86 H86        26.6066   -4.4134   -5.0380 H         1 UNK         0.0934 
     87 H87        27.2527   -3.1310   -6.0086 H         1 UNK         0.0934 
     88 H88        24.4636   -4.3401   -6.5301 H         1 UNK         0.0739 
     89 H89        24.5715   -1.8674   -5.0687 H         1 UNK         0.3093 
     90 H90        22.6168   -3.0573   -2.4726 H         1 UNK         0.0818 
     91 H91        24.2536   -2.2674   -0.7647 H         1 UNK         0.0819 
     92 H92        24.7140   -3.8537   -1.3598 H         1 UNK         0.0819 
     93 H93        25.5729   -2.4262   -1.9243 H         1 UNK         0.0819 
     94 H94        24.1667   -0.6190   -2.8145 H         1 UNK         0.3041 
     95 H95        21.8733    0.9665   -5.0120 H         1 UNK         0.0784 
     96 H96        21.0000    1.3698   -2.7340 H         1 UNK         0.0793 
     97 H97        22.6280    1.5169   -2.0941 H         1 UNK         0.0793 
     98 H98        22.0202    2.7042   -3.2464 H         1 UNK         0.0793 
     99 H99        23.8971    1.5206   -5.5894 H         1 UNK         0.3024 
    100 H100       26.1180    1.5927   -5.7578 H         1 UNK         0.1171 
    101 H101       26.4410    3.6246   -3.4679 H         1 UNK         0.0786 
    102 H102       27.1907    3.7675   -5.0542 H         1 UNK         0.0786 
    103 H103       25.4441    3.8493   -4.8982 H         1 UNK         0.0786 
    104 H104       28.0916    1.7575   -3.6390 H         1 UNK         0.2977 
    105 H105       25.6102   -3.8488   -8.7177 H         1 UNK         0.3127 
    106 H106       24.5837   -1.3505   -9.8338 H         1 UNK         0.0770 
    107 H107       26.1910   -3.6404  -11.0980 H         1 UNK         0.0814 
    108 H108       25.4124   -2.3291  -11.9722 H         1 UNK         0.0814 
    109 H109       24.4324   -3.4946  -11.1002 H         1 UNK         0.0814 
    110 H110       27.4340   -2.1902   -8.2323 H         1 UNK         0.2983 
    111 H111       29.4072   -0.6631   -9.6725 H         1 UNK         0.0947 
    112 H112       29.3579   -1.9245   -6.8810 H         1 UNK         0.0806 
    113 H113       30.7867   -1.2234   -7.6191 H         1 UNK         0.0806 
    114 H114       30.0357   -2.6329   -8.3407 H         1 UNK         0.0806 
    115 H115       27.4636    1.1038   -9.5561 H         1 UNK         0.3000 
    116 H116       27.2729    2.8720   -7.3600 H         1 UNK         0.0850 
    117 H117       26.3385    4.4559   -9.0604 H         1 UNK         0.0810 
    118 H118       25.6412    2.8500   -9.2080 H         1 UNK         0.0810 
    119 H119       26.8706    3.3871  -10.3516 H         1 UNK         0.0810 
    120 H120       28.9875    3.7137   -6.4118 H         1 UNK         0.3040 
    121 H121       30.8202    4.8150   -5.9004 H         1 UNK         0.0766 
    122 H122       30.6583    6.2324   -8.6107 H         1 UNK         0.0812 
    123 H123       31.5537    6.7679   -7.1984 H         1 UNK         0.0812 
    124 H124       29.7998    6.7360   -7.1550 H         1 UNK         0.0812 
    125 H125       31.0123    2.1883   -7.1694 H         1 UNK         0.3205 
    126 H126       33.8875    2.2521   -7.9547 H         1 UNK         0.0754 
    127 H127       33.3904    0.3183   -9.4599 H         1 UNK         0.0769 
    128 H128       32.4742    1.7279   -9.9667 H         1 UNK         0.0769 
    129 H129       31.6789    0.4324   -9.0814 H         1 UNK         0.0769 
    130 H130       34.8899    0.1159   -7.5006 H         1 UNK         0.2981 
    131 H131       35.6080   -1.4150   -6.1095 H         1 UNK         0.0541 
    132 H132       35.6923   -0.5695   -2.4738 H         1 UNK         0.3459 
    133 H133       35.2909   -2.0238   -3.3469 H         1 UNK         0.3459 
    134 H134       32.7744   -1.7989   -4.9992 H         1 UNK         0.0612 
    135 H135       34.1342   -2.8702   -4.7769 H         1 UNK         0.0612 
    136 H136       32.9569   -5.4421   -7.1645 H         1 UNK         0.0624 
    137 H137       33.7645   -5.0360   -5.6757 H         1 UNK         0.0624 
@<TRIPOS>BOND
     1    1    2 1    
     2    1   72 1    
     3    1   73 1    
     4    1   74 1    
     5    2    3 2    
     6    2    4 am   BACKBONE|DICT|INTERRES
     7    4    5 1    
     8    4   75 1    
     9    5    6 1    
    10    5   35 1    
    11    5   76 1    
    12    6    7 1    
    13    6   77 1    
    14    6   78 1    
    15    7    8 1    
    16    8    9 1    
    17    8   79 1    
    18    8   80 1    
    19    9   10 ar   
    20    9   14 ar   
    21   10   11 ar   
    22   10   81 1    
    23   11   12 ar   
    24   11   71 1    
    25   12   13 ar   
    26   12   82 1    
    27   13   14 ar   
    28   13   15 1    
    29   14   83 1    
    30   15   16 1    
    31   15   84 1    
    32   15   85 1    
    33   16   17 1    
    34   17   18 1    
    35   17   86 1    
    36   17   87 1    
    37   18   19 1    
    38   18   37 1    
    39   18   88 1    
    40   19   20 am   BACKBONE|DICT|INTERRES
    41   19   89 1    
    42   20   21 2    
    43   20   22 1    
    44   22   23 1    
    45   22   24 1    
    46   22   90 1    
    47   23   91 1    
    48   23   92 1    
    49   23   93 1    
    50   24   25 am   BACKBONE|DICT|INTERRES
    51   24   94 1    
    52   25   26 2    
    53   25   27 1    
    54   27   28 1    
    55   27   29 1    
    56   27   95 1    
    57   28   96 1    
    58   28   97 1    
    59   28   98 1    
    60   29   30 am   BACKBONE|DICT|INTERRES
    61   29   99 1    
    62   30   31 2    
    63   30   32 1    
    64   32   33 1    
    65   32   34 1    
    66   32  100 1    
    67   33  101 1    
    68   33  102 1    
    69   33  103 1    
    70   34   35 am   BACKBONE|DICT|INTERRES
    71   34  104 1    
    72   35   36 2    
    73   37   38 2    
    74   37   39 am   BACKBONE|DICT|INTERRES
    75   39   40 1    
    76   39  105 1    
    77   40   41 1    
    78   40   42 1    
    79   40  106 1    
    80   41  107 1    
    81   41  108 1    
    82   41  109 1    
    83   42   43 2    
    84   42   44 am   BACKBONE|DICT|INTERRES
    85   44   45 1    
    86   44  110 1    
    87   45   46 1    
    88   45   47 1    
    89   45  111 1    
    90   46  112 1    
    91   46  113 1    
    92   46  114 1    
    93   47   48 2    
    94   47   49 am   BACKBONE|DICT|INTERRES
    95   49   50 1    
    96   49  115 1    
    97   50   51 1    
    98   50   52 1    
    99   50  116 1    
   100   51  117 1    
   101   51  118 1    
   102   51  119 1    
   103   52   53 2    
   104   52   54 am   BACKBONE|DICT|INTERRES
   105   54   55 1    
   106   54  120 1    
   107   55   56 1    
   108   55   57 1    
   109   55  121 1    
   110   56  122 1    
   111   56  123 1    
   112   56  124 1    
   113   57   58 2    
   114   57   59 am   BACKBONE|DICT|INTERRES
   115   59   60 1    
   116   59  125 1    
   117   60   61 1    
   118   60   62 1    
   119   60  126 1    
   120   61  127 1    
   121   61  128 1    
   122   61  129 1    
   123   62   63 2    
   124   62   64 am   BACKBONE|DICT|INTERRES
   125   64   65 1    
   126   64  130 1    
   127   65   66 1    
   128   65   69 1    
   129   65  131 1    
   130   66   67 am   BACKBONE|DICT|INTERRES
   131   66   68 2    
   132   67  132 1    
   133   67  133 1    
   134   69   70 1    
   135   69  134 1    
   136   69  135 1    
   137   70   71 1    
   138   71  136 1    
   139   71  137 1    
@<TRIPOS>SUBSTRUCTURE
     1 UNK         1 GROUP             0       ****    0 ROOT    
