@<TRIPOS>MOLECULE
3R137
137   139    1
SMALL
USER_CHARGES


@<TRIPOS>ATOM
      1 CA         27.1898   -5.5938   -4.7805 C.3       0 UNK        -0.2020 
      2 C          28.6706   -5.2561   -4.6247 C.2       0 UNK         0.4855 
      3 O          29.4658   -5.6365   -5.4807 O.2       0 UNK        -0.5197 
      4 N          29.1058   -4.5661   -3.5622 N.am      1 UNK        -0.4892 
      5 CA         28.3270   -3.9624   -2.4733 C.3       1 UNK         0.0835 
      6 C6         29.2603   -3.2809   -1.4479 C.3       12 UNK        -0.0855 
      7 S7         30.5988   -4.3170   -0.7563 S.3       12 UNK        -0.2931 
      8 C8         31.5665   -3.0758    0.1852 C.3       12 UNK         0.0378 
      9 C9         31.8686   -1.8524   -0.6690 C.ar      12 UNK        -0.0802 
     10 C10        32.8728   -1.9058   -1.6377 C.ar      12 UNK        -0.0944 
     11 C11        33.0072   -0.8787   -2.5789 C.ar      12 UNK        -0.0787 
     12 C12        32.1543    0.2283   -2.5091 C.ar      12 UNK        -0.0862 
     13 C13        31.1533    0.2971   -1.5347 C.ar      12 UNK        -0.0733 
     14 C14        31.0435   -0.7255   -0.5903 C.ar      12 UNK        -0.0832 
     15 C15        30.1307    1.4253   -1.5497 C.3       12 UNK         0.0240 
     16 S16        28.6835    0.9902   -2.5792 S.3       12 UNK        -0.2522 
     17 C17        29.4034    1.1598   -4.2474 C.3       12 UNK        -0.0967 
     18 CA         28.4072    1.2879   -5.4252 C.3       5 UNK         0.0660 
     19 N          27.7932    0.0144   -5.8120 N.am      5 UNK        -0.4015 
     20 C          27.3184   -0.2091   -7.0471 C.2       4 UNK         0.4946 
     21 O          27.1687    0.6786   -7.8878 O.2       4 UNK        -0.5353 
     22 CA         26.9618   -1.6532   -7.4167 C.3       4 UNK         0.0277 
     23 CB         28.2113   -2.5519   -7.4144 C.3       4 UNK        -0.1981 
     24 N          25.9647   -2.1769   -6.4915 N.am      4 UNK        -0.4209 
     25 C          24.6426   -2.1542   -6.7115 C.2       3 UNK         0.4942 
     26 O          24.1289   -1.7993   -7.7730 O.2       3 UNK        -0.5208 
     27 CA         23.7236   -2.5926   -5.5539 C.3       3 UNK         0.0250 
     28 CB         23.2608   -4.0448   -5.7566 C.3       3 UNK        -0.1990 
     29 N          24.3209   -2.4611   -4.2212 N.am      3 UNK        -0.4232 
     30 C          24.7571   -1.3139   -3.6822 C.2       2 UNK         0.4993 
     31 O          24.7117   -0.2238   -4.2482 O.2       2 UNK        -0.5286 
     32 CA         25.4393   -1.4157   -2.3120 C.3       2 UNK         0.0209 
     33 CB         24.3948   -1.4112   -1.1846 C.3       2 UNK        -0.1931 
     34 N          26.3288   -2.5752   -2.1611 N.am      2 UNK        -0.4546 
     35 C          27.3494   -2.8780   -2.9777 C.2       1 UNK         0.5154 
     36 O          27.5706   -2.2962   -4.0445 O.2       1 UNK        -0.5181 
     37 C          27.4159    2.4641   -5.3012 C.2       5 UNK         0.5014 
     38 O          27.8146    3.5949   -5.5848 O.2       5 UNK        -0.5248 
     39 N          26.1403    2.2065   -4.9639 N.am      6 UNK        -0.4434 
     40 CA         25.0873    3.2332   -4.9713 C.3       6 UNK         0.0363 
     41 CB         23.8723    2.7614   -4.1575 C.3       6 UNK        -0.1936 
     42 C          24.6575    3.6326   -6.3953 C.2       6 UNK         0.5081 
     43 O          24.1558    4.7406   -6.5842 O.2       6 UNK        -0.5248 
     44 N          24.8873    2.7450   -7.3732 N.am      7 UNK        -0.4718 
     45 CA         24.7054    3.0006   -8.8047 C.3       7 UNK         0.0273 
     46 CB         24.2669    1.6931   -9.4885 C.3       7 UNK        -0.1935 
     47 C          25.9787    3.5715   -9.4630 C.2       7 UNK         0.5018 
     48 O          25.9747    3.7928  -10.6746 O.2       7 UNK        -0.5186 
     49 N          27.0377    3.7892   -8.6658 N.am      8 UNK        -0.4240 
     50 CA         28.3718    4.2692   -9.0411 C.3       8 UNK         0.0235 
     51 CB         28.3085    5.7028   -9.6115 C.3       8 UNK        -0.2000 
     52 C          29.1554    3.2954   -9.9445 C.2       8 UNK         0.4941 
     53 O          30.0414    3.7349  -10.6809 O.2       8 UNK        -0.5273 
     54 N          28.8465    1.9946   -9.8610 N.am      9 UNK        -0.4262 
     55 CA         29.6062    0.9234  -10.5034 C.3       9 UNK         0.0264 
     56 CB         28.6406   -0.2061  -10.9000 C.3       9 UNK        -0.1955 
     57 C          30.6881    0.4046   -9.5434 C.2       9 UNK         0.5031 
     58 O          30.5894    0.6060   -8.3296 O.2       9 UNK        -0.5390 
     59 N          31.6973   -0.2758  -10.1008 N.am      10 UNK        -0.4204 
     60 CA         32.7509   -0.9457   -9.3364 C.3       10 UNK         0.0237 
     61 CB         33.8782   -1.3808  -10.2871 C.3       10 UNK        -0.1985 
     62 C          32.1863   -2.1540   -8.5719 C.2       10 UNK         0.4970 
     63 O          31.4501   -2.9502   -9.1597 O.2       10 UNK        -0.4914 
     64 N          32.5421   -2.2628   -7.2883 N.am      11 UNK        -0.4285 
     65 CA         32.1429   -3.3643   -6.4049 C.3       11 UNK         0.1007 
     66 C          32.7783   -4.7285   -6.7994 C.2       11 UNK         0.5703 
     67 N          32.0923   -5.8315   -6.5359 N.am      11 UNK        -0.7361 
     68 O          33.8922   -4.7980   -7.3173 O.2       11 UNK        -0.4986 
     69 C69        32.3788   -3.0033   -4.9144 C.3       12 UNK        -0.0947 
     70 S70        34.1206   -2.6383   -4.4798 S.3       12 UNK        -0.2240 
     71 C71        34.0212   -0.9788   -3.7168 C.3       12 UNK         0.0194 
     72 H72        27.0747   -6.5036   -5.3692 H         1 UNK         0.0906 
     73 H73        26.6998   -5.7638   -3.8234 H         1 UNK         0.0906 
     74 H74        26.6739   -4.7915   -5.3057 H         1 UNK         0.0906 
     75 H75        30.0969   -4.3930   -3.4896 H         1 UNK         0.3140 
     76 H76        27.7629   -4.7515   -1.9729 H         1 UNK         0.1085 
     77 H77        28.6939   -2.8685   -0.6100 H         1 UNK         0.0836 
     78 H78        29.7214   -2.4362   -1.9591 H         1 UNK         0.0836 
     79 H79        32.4972   -3.5290    0.5296 H         1 UNK         0.0731 
     80 H80        31.0120   -2.7906    1.0807 H         1 UNK         0.0731 
     81 H81        33.4969   -2.7863   -1.7060 H         1 UNK         0.1312 
     82 H82        32.2351    1.0150   -3.2464 H         1 UNK         0.1406 
     83 H83        30.2448   -0.6941    0.1385 H         1 UNK         0.1631 
     84 H84        30.5835    2.3504   -1.9096 H         1 UNK         0.0717 
     85 H85        29.7899    1.6305   -0.5338 H         1 UNK         0.0717 
     86 H86        30.0602    0.3065   -4.4240 H         1 UNK         0.0934 
     87 H87        30.0553    2.0353   -4.2462 H         1 UNK         0.0934 
     88 H88        29.0359    1.5617   -6.2767 H         1 UNK         0.0739 
     89 H89        27.8426   -0.7497   -5.1425 H         1 UNK         0.3093 
     90 H90        26.5607   -1.6489   -8.4325 H         1 UNK         0.0818 
     91 H91        27.9712   -3.5654   -7.7356 H         1 UNK         0.0819 
     92 H92        28.9674   -2.1661   -8.0993 H         1 UNK         0.0819 
     93 H93        28.6738   -2.6180   -6.4296 H         1 UNK         0.0819 
     94 H94        26.3016   -2.4158   -5.5650 H         1 UNK         0.3041 
     95 H95        22.8447   -1.9449   -5.5814 H         1 UNK         0.0784 
     96 H96        22.7829   -4.1698   -6.7295 H         1 UNK         0.0793 
     97 H97        24.0951   -4.7458   -5.7120 H         1 UNK         0.0793 
     98 H98        22.5320   -4.3394   -5.0012 H         1 UNK         0.0793 
     99 H99        24.4150   -3.3066   -3.6778 H         1 UNK         0.3024 
    100 H100       26.0575   -0.5219   -2.2022 H         1 UNK         0.1171 
    101 H101       23.7724   -2.3067   -1.2042 H         1 UNK         0.0786 
    102 H102       24.8686   -1.3520   -0.2046 H         1 UNK         0.0786 
    103 H103       23.7304   -0.5500   -1.2719 H         1 UNK         0.0786 
    104 H104       26.2230   -3.1016   -1.3052 H         1 UNK         0.2977 
    105 H105       25.8469    1.2557   -4.7487 H         1 UNK         0.3127 
    106 H106       25.4838    4.1272   -4.4849 H         1 UNK         0.0770 
    107 H107       23.3495    1.9411   -4.6502 H         1 UNK         0.0814 
    108 H108       23.1525    3.5714   -4.0334 H         1 UNK         0.0814 
    109 H109       24.1624    2.4282   -3.1610 H         1 UNK         0.0814 
    110 H110       25.3370    1.8693   -7.1366 H         1 UNK         0.2983 
    111 H111       23.9127    3.7385   -8.9454 H         1 UNK         0.0947 
    112 H112       25.0375    0.9240   -9.4294 H         1 UNK         0.0806 
    113 H113       24.0526    1.8564  -10.5454 H         1 UNK         0.0806 
    114 H114       23.3609    1.2915   -9.0342 H         1 UNK         0.0806 
    115 H115       26.9302    3.5613   -7.6857 H         1 UNK         0.3000 
    116 H116       28.9369    4.3171   -8.1090 H         1 UNK         0.0850 
    117 H117       29.3087    6.1202   -9.7333 H         1 UNK         0.0810 
    118 H118       27.7603    6.3706   -8.9469 H         1 UNK         0.0810 
    119 H119       27.8260    5.7296  -10.5889 H         1 UNK         0.0810 
    120 H120       28.1608    1.6925   -9.1719 H         1 UNK         0.3040 
    121 H121       30.0893    1.2996  -11.4078 H         1 UNK         0.0766 
    122 H122       27.8519    0.1605  -11.5572 H         1 UNK         0.0812 
    123 H123       28.1657   -0.6568  -10.0298 H         1 UNK         0.0812 
    124 H124       29.1624   -1.0022  -11.4323 H         1 UNK         0.0812 
    125 H125       31.6909   -0.4330  -11.0982 H         1 UNK         0.3205 
    126 H126       33.1608   -0.2282   -8.6218 H         1 UNK         0.0754 
    127 H127       34.6851   -1.8671   -9.7369 H         1 UNK         0.0769 
    128 H128       34.3111   -0.5266  -10.8082 H         1 UNK         0.0769 
    129 H129       33.5238   -2.0891  -11.0374 H         1 UNK         0.0769 
    130 H130       33.1815   -1.5924   -6.8898 H         1 UNK         0.2981 
    131 H131       31.0643   -3.4790   -6.5306 H         1 UNK         0.0541 
    132 H132       32.4880   -6.7267   -6.7733 H         1 UNK         0.3459 
    133 H133       31.1576   -5.7820   -6.1330 H         1 UNK         0.3459 
    134 H134       32.0354   -3.8138   -4.2698 H         1 UNK         0.0612 
    135 H135       31.7541   -2.1466   -4.6580 H         1 UNK         0.0612 
    136 H136       35.0061   -0.7098   -3.3337 H         1 UNK         0.0624 
    137 H137       33.7860   -0.2590   -4.5024 H         1 UNK         0.0624 
@<TRIPOS>BOND
     1    1    2 1    
     2    1   72 1    
     3    1   73 1    
     4    1   74 1    
     5    2    3 2    
     6    2    4 am   BACKBONE|DICT|INTERRES
     7    4    5 1    
     8    4   75 1    
     9    5    6 1    
    10    5   35 1    
    11    5   76 1    
    12    6    7 1    
    13    6   77 1    
    14    6   78 1    
    15    7    8 1    
    16    8    9 1    
    17    8   79 1    
    18    8   80 1    
    19    9   10 ar   
    20    9   14 ar   
    21   10   11 ar   
    22   10   81 1    
    23   11   12 ar   
    24   11   71 1    
    25   12   13 ar   
    26   12   82 1    
    27   13   14 ar   
    28   13   15 1    
    29   14   83 1    
    30   15   16 1    
    31   15   84 1    
    32   15   85 1    
    33   16   17 1    
    34   17   18 1    
    35   17   86 1    
    36   17   87 1    
    37   18   19 1    
    38   18   37 1    
    39   18   88 1    
    40   19   20 am   BACKBONE|DICT|INTERRES
    41   19   89 1    
    42   20   21 2    
    43   20   22 1    
    44   22   23 1    
    45   22   24 1    
    46   22   90 1    
    47   23   91 1    
    48   23   92 1    
    49   23   93 1    
    50   24   25 am   BACKBONE|DICT|INTERRES
    51   24   94 1    
    52   25   26 2    
    53   25   27 1    
    54   27   28 1    
    55   27   29 1    
    56   27   95 1    
    57   28   96 1    
    58   28   97 1    
    59   28   98 1    
    60   29   30 am   BACKBONE|DICT|INTERRES
    61   29   99 1    
    62   30   31 2    
    63   30   32 1    
    64   32   33 1    
    65   32   34 1    
    66   32  100 1    
    67   33  101 1    
    68   33  102 1    
    69   33  103 1    
    70   34   35 am   BACKBONE|DICT|INTERRES
    71   34  104 1    
    72   35   36 2    
    73   37   38 2    
    74   37   39 am   BACKBONE|DICT|INTERRES
    75   39   40 1    
    76   39  105 1    
    77   40   41 1    
    78   40   42 1    
    79   40  106 1    
    80   41  107 1    
    81   41  108 1    
    82   41  109 1    
    83   42   43 2    
    84   42   44 am   BACKBONE|DICT|INTERRES
    85   44   45 1    
    86   44  110 1    
    87   45   46 1    
    88   45   47 1    
    89   45  111 1    
    90   46  112 1    
    91   46  113 1    
    92   46  114 1    
    93   47   48 2    
    94   47   49 am   BACKBONE|DICT|INTERRES
    95   49   50 1    
    96   49  115 1    
    97   50   51 1    
    98   50   52 1    
    99   50  116 1    
   100   51  117 1    
   101   51  118 1    
   102   51  119 1    
   103   52   53 2    
   104   52   54 am   BACKBONE|DICT|INTERRES
   105   54   55 1    
   106   54  120 1    
   107   55   56 1    
   108   55   57 1    
   109   55  121 1    
   110   56  122 1    
   111   56  123 1    
   112   56  124 1    
   113   57   58 2    
   114   57   59 am   BACKBONE|DICT|INTERRES
   115   59   60 1    
   116   59  125 1    
   117   60   61 1    
   118   60   62 1    
   119   60  126 1    
   120   61  127 1    
   121   61  128 1    
   122   61  129 1    
   123   62   63 2    
   124   62   64 am   BACKBONE|DICT|INTERRES
   125   64   65 1    
   126   64  130 1    
   127   65   66 1    
   128   65   69 1    
   129   65  131 1    
   130   66   67 am   BACKBONE|DICT|INTERRES
   131   66   68 2    
   132   67  132 1    
   133   67  133 1    
   134   69   70 1    
   135   69  134 1    
   136   69  135 1    
   137   70   71 1    
   138   71  136 1    
   139   71  137 1    
@<TRIPOS>SUBSTRUCTURE
     1 UNK         1 GROUP             0       ****    0 ROOT    
