@<TRIPOS>MOLECULE
3R137
137   139    1
SMALL
USER_CHARGES


@<TRIPOS>ATOM
      1 CA         29.3218   -1.5909    3.4994 C.3       0 UNK        -0.2020 
      2 C          28.9129   -1.2249    2.0803 C.2       0 UNK         0.4855 
      3 O          28.4521   -0.1072    1.8445 O.2       0 UNK        -0.5197 
      4 N          29.0863   -2.1536    1.1327 N.am      1 UNK        -0.4892 
      5 CA         28.6775   -2.0095   -0.2679 C.3       1 UNK         0.0835 
      6 C6         29.4856   -2.9557   -1.1925 C.3       12 UNK        -0.0855 
      7 S7         29.3378   -4.7333   -0.7842 S.3       12 UNK        -0.2931 
      8 C8         30.8031   -5.4235   -1.6245 C.3       12 UNK         0.0378 
      9 C9         30.8774   -5.0103   -3.0890 C.ar      12 UNK        -0.0802 
     10 C10        31.9554   -4.2501   -3.5524 C.ar      12 UNK        -0.0944 
     11 C11        32.0091   -3.8313   -4.8853 C.ar      12 UNK        -0.0787 
     12 C12        30.9700   -4.1713   -5.7566 C.ar      12 UNK        -0.0862 
     13 C13        29.8815   -4.9239   -5.3014 C.ar      12 UNK        -0.0733 
     14 C14        29.8534   -5.3598   -3.9736 C.ar      12 UNK        -0.0832 
     15 C15        28.7150   -5.2356   -6.2296 C.3       12 UNK         0.0240 
     16 S16        27.1740   -4.4298   -5.6764 S.3       12 UNK        -0.2522 
     17 C17        27.6202   -2.6636   -5.7728 C.3       12 UNK        -0.0967 
     18 CA         26.8275   -1.9258   -6.8745 C.3       5 UNK         0.0660 
     19 N          25.3935   -1.8552   -6.5952 N.am      5 UNK        -0.4015 
     20 C          24.4570   -1.5572   -7.5065 C.2       4 UNK         0.4946 
     21 O          24.6895   -1.3862   -8.7033 O.2       4 UNK        -0.5353 
     22 CA         23.0177   -1.3929   -6.9893 C.3       4 UNK         0.0277 
     23 CB         22.2963   -2.7500   -6.9580 C.3       4 UNK        -0.1981 
     24 N          22.9552   -0.7722   -5.6628 N.am      4 UNK        -0.4209 
     25 C          23.3376    0.4853   -5.3956 C.2       3 UNK         0.4942 
     26 O          23.7508    1.2722   -6.2459 O.2       3 UNK        -0.5208 
     27 CA         23.2978    0.9213   -3.9217 C.3       3 UNK         0.0250 
     28 CB         21.8915    1.4100   -3.5396 C.3       3 UNK        -0.1990 
     29 N          23.7277   -0.1287   -2.9908 N.am      3 UNK        -0.4232 
     30 C          24.9503   -0.6763   -2.9767 C.2       2 UNK         0.4993 
     31 O          25.8458   -0.3869   -3.7758 O.2       2 UNK        -0.5286 
     32 CA         25.2084   -1.7603   -1.9289 C.3       2 UNK         0.0209 
     33 CB         24.8291   -3.1483   -2.4780 C.3       2 UNK        -0.1931 
     34 N          26.6258   -1.7281   -1.5806 N.am      2 UNK        -0.4546 
     35 C          27.1503   -2.1826   -0.4375 C.2       1 UNK         0.5154 
     36 O          26.4799   -2.7236    0.4479 O.2       1 UNK        -0.5181 
     37 C          27.3977   -0.5186   -7.1120 C.2       5 UNK         0.5014 
     38 O          28.0602   -0.3130   -8.1268 O.2       5 UNK        -0.5248 
     39 N          27.0961    0.4262   -6.2072 N.am      6 UNK        -0.4434 
     40 CA         27.5342    1.8255   -6.2718 C.3       6 UNK         0.0363 
     41 CB         27.0517    2.5699   -5.0171 C.3       6 UNK        -0.1936 
     42 C          27.0791    2.5625   -7.5447 C.2       6 UNK         0.5081 
     43 O          27.8223    3.3956   -8.0638 O.2       6 UNK        -0.5248 
     44 N          25.8782    2.2315   -8.0375 N.am      7 UNK        -0.4718 
     45 CA         25.3425    2.7144   -9.3110 C.3       7 UNK         0.0273 
     46 CB         23.8376    2.4072   -9.3711 C.3       7 UNK        -0.1935 
     47 C          26.0569    2.1226  -10.5406 C.2       7 UNK         0.5018 
     48 O          26.0582    2.7652  -11.5918 O.2       7 UNK        -0.5186 
     49 N          26.6291    0.9179  -10.4053 N.am      8 UNK        -0.4240 
     50 CA         27.3318    0.2128  -11.4762 C.3       8 UNK         0.0235 
     51 CB         27.1883   -1.3065  -11.2841 C.3       8 UNK        -0.2000 
     52 C          28.8106    0.6171  -11.5620 C.2       8 UNK         0.4941 
     53 O          29.3012    0.8333  -12.6715 O.2       8 UNK        -0.5273 
     54 N          29.4996    0.7101  -10.4162 N.am      9 UNK        -0.4262 
     55 CA         30.9214    1.0441  -10.3359 C.3       9 UNK         0.0264 
     56 CB         31.7692   -0.2146  -10.6036 C.3       9 UNK        -0.1955 
     57 C          31.2602    1.6360   -8.9639 C.2       9 UNK         0.5031 
     58 O          30.6175    1.3024   -7.9697 O.2       9 UNK        -0.5390 
     59 N          32.3106    2.4647   -8.9256 N.am      10 UNK        -0.4204 
     60 CA         32.8317    3.0961   -7.7073 C.3       10 UNK         0.0237 
     61 CB         33.5716    4.3868   -8.1021 C.3       10 UNK        -0.1985 
     62 C          33.7456    2.1802   -6.8654 C.2       10 UNK         0.4970 
     63 O          34.2071    2.6183   -5.8111 O.2       10 UNK        -0.4914 
     64 N          34.0190    0.9589   -7.3486 N.am      11 UNK        -0.4285 
     65 CA         34.9350   -0.0388   -6.7618 C.3       11 UNK         0.1007 
     66 C          36.4450    0.3493   -6.8359 C.2       11 UNK         0.5703 
     67 N          36.8388    1.3385   -7.6300 N.am      11 UNK        -0.7361 
     68 O          37.2842   -0.2776   -6.1932 O.2       11 UNK        -0.4986 
     69 C69        34.5137   -0.5202   -5.3412 C.3       12 UNK        -0.0947 
     70 S70        32.8304   -1.2224   -5.2719 S.3       12 UNK        -0.2240 
     71 C71        33.1879   -3.0041   -5.3740 C.3       12 UNK         0.0194 
     72 H72        30.0814   -0.8987    3.8619 H         1 UNK         0.0906 
     73 H73        28.4608   -1.5313    4.1647 H         1 UNK         0.0906 
     74 H74        29.7272   -2.6008    3.5596 H         1 UNK         0.0906 
     75 H75        29.4268   -3.0715    1.3831 H         1 UNK         0.3140 
     76 H76        28.9085   -0.9859   -0.5727 H         1 UNK         0.1085 
     77 H77        29.1946   -2.8142   -2.2354 H         1 UNK         0.0836 
     78 H78        30.5407   -2.6801   -1.1465 H         1 UNK         0.0836 
     79 H79        31.6980   -5.1083   -1.0855 H         1 UNK         0.0731 
     80 H80        30.7717   -6.5119   -1.5593 H         1 UNK         0.0731 
     81 H81        32.7496   -3.9717   -2.8731 H         1 UNK         0.1312 
     82 H82        31.0006   -3.8295   -6.7823 H         1 UNK         0.1406 
     83 H83        29.0082   -5.9324   -3.6153 H         1 UNK         0.1631 
     84 H84        28.5598   -6.3148   -6.2615 H         1 UNK         0.0717 
     85 H85        28.9329   -4.9241   -7.2524 H         1 UNK         0.0717 
     86 H86        27.4496   -2.2137   -4.7940 H         1 UNK         0.0934 
     87 H87        28.6911   -2.5676   -5.9562 H         1 UNK         0.0934 
     88 H88        26.9578   -2.4823   -7.8058 H         1 UNK         0.0739 
     89 H89        25.1203   -1.9526   -5.6293 H         1 UNK         0.3093 
     90 H90        22.4904   -0.7401   -7.6886 H         1 UNK         0.0818 
     91 H91        21.2500   -2.6372   -6.6734 H         1 UNK         0.0819 
     92 H92        22.3131   -3.2217   -7.9417 H         1 UNK         0.0819 
     93 H93        22.7637   -3.4429   -6.2570 H         1 UNK         0.0819 
     94 H94        22.6172   -1.3437   -4.9023 H         1 UNK         0.3041 
     95 H95        23.9882    1.7598   -3.8110 H         1 UNK         0.0784 
     96 H96        21.5601    2.2046   -4.2100 H         1 UNK         0.0793 
     97 H97        21.1534    0.6088   -3.5944 H         1 UNK         0.0793 
     98 H98        21.8735    1.8155   -2.5278 H         1 UNK         0.0793 
     99 H99        23.0478   -0.4310   -2.3072 H         1 UNK         0.3024 
    100 H100       24.6141   -1.5387   -1.0391 H         1 UNK         0.1171 
    101 H101       23.7770   -3.1870   -2.7626 H         1 UNK         0.0786 
    102 H102       24.9892   -3.9274   -1.7324 H         1 UNK         0.0786 
    103 H103       25.4180   -3.4074   -3.3583 H         1 UNK         0.0786 
    104 H104       27.2061   -1.2565   -2.2635 H         1 UNK         0.2977 
    105 H105       26.5569    0.1602   -5.3846 H         1 UNK         0.3127 
    106 H106       28.6256    1.8226   -6.2675 H         1 UNK         0.0770 
    107 H107       25.9634    2.6034   -4.9655 H         1 UNK         0.0814 
    108 H108       27.4111    3.5997   -5.0128 H         1 UNK         0.0814 
    109 H109       27.4166    2.0940   -4.1068 H         1 UNK         0.0814 
    110 H110       25.2830    1.6119   -7.4950 H         1 UNK         0.2983 
    111 H111       25.4734    3.7982   -9.3464 H         1 UNK         0.0947 
    112 H112       23.4001    2.7679  -10.3030 H         1 UNK         0.0806 
    113 H113       23.3017    2.8897   -8.5534 H         1 UNK         0.0806 
    114 H114       23.6441    1.3352   -9.3107 H         1 UNK         0.0806 
    115 H115       26.6371    0.4778   -9.4921 H         1 UNK         0.3000 
    116 H116       26.8637    0.4654  -12.4303 H         1 UNK         0.0850 
    117 H117       27.6591   -1.8479  -12.1056 H         1 UNK         0.0810 
    118 H118       26.1398   -1.6041  -11.2568 H         1 UNK         0.0810 
    119 H119       27.6548   -1.6492  -10.3605 H         1 UNK         0.0810 
    120 H120       29.0428    0.5155   -9.5242 H         1 UNK         0.3040 
    121 H121       31.1481    1.7990  -11.0921 H         1 UNK         0.0766 
    122 H122       32.8357    0.0081  -10.5585 H         1 UNK         0.0812 
    123 H123       31.5709   -0.6261  -11.5933 H         1 UNK         0.0812 
    124 H124       31.5649   -0.9964   -9.8707 H         1 UNK         0.0812 
    125 H125       32.7947    2.6789   -9.7864 H         1 UNK         0.3205 
    126 H126       31.9882    3.3730   -7.0709 H         1 UNK         0.0754 
    127 H127       33.9293    4.9211   -7.2207 H         1 UNK         0.0769 
    128 H128       32.9166    5.0692   -8.6442 H         1 UNK         0.0769 
    129 H129       34.4382    4.1811   -8.7316 H         1 UNK         0.0769 
    130 H130       33.5887    0.6910   -8.2195 H         1 UNK         0.2981 
    131 H131       34.8576   -0.9059   -7.4183 H         1 UNK         0.0541 
    132 H132       36.1702    1.8556   -8.1763 H         1 UNK         0.3459 
    133 H133       37.8184    1.5701   -7.6780 H         1 UNK         0.3459 
    134 H134       34.5639    0.3033   -4.6282 H         1 UNK         0.0612 
    135 H135       35.2134   -1.2680   -4.9658 H         1 UNK         0.0612 
    136 H136       34.0697   -3.2424   -4.7775 H         1 UNK         0.0624 
    137 H137       33.4329   -3.2635   -6.4050 H         1 UNK         0.0624 
@<TRIPOS>BOND
     1    1    2 1    
     2    1   72 1    
     3    1   73 1    
     4    1   74 1    
     5    2    3 2    
     6    2    4 am   BACKBONE|DICT|INTERRES
     7    4    5 1    
     8    4   75 1    
     9    5    6 1    
    10    5   35 1    
    11    5   76 1    
    12    6    7 1    
    13    6   77 1    
    14    6   78 1    
    15    7    8 1    
    16    8    9 1    
    17    8   79 1    
    18    8   80 1    
    19    9   10 ar   
    20    9   14 ar   
    21   10   11 ar   
    22   10   81 1    
    23   11   12 ar   
    24   11   71 1    
    25   12   13 ar   
    26   12   82 1    
    27   13   14 ar   
    28   13   15 1    
    29   14   83 1    
    30   15   16 1    
    31   15   84 1    
    32   15   85 1    
    33   16   17 1    
    34   17   18 1    
    35   17   86 1    
    36   17   87 1    
    37   18   19 1    
    38   18   37 1    
    39   18   88 1    
    40   19   20 am   BACKBONE|DICT|INTERRES
    41   19   89 1    
    42   20   21 2    
    43   20   22 1    
    44   22   23 1    
    45   22   24 1    
    46   22   90 1    
    47   23   91 1    
    48   23   92 1    
    49   23   93 1    
    50   24   25 am   BACKBONE|DICT|INTERRES
    51   24   94 1    
    52   25   26 2    
    53   25   27 1    
    54   27   28 1    
    55   27   29 1    
    56   27   95 1    
    57   28   96 1    
    58   28   97 1    
    59   28   98 1    
    60   29   30 am   BACKBONE|DICT|INTERRES
    61   29   99 1    
    62   30   31 2    
    63   30   32 1    
    64   32   33 1    
    65   32   34 1    
    66   32  100 1    
    67   33  101 1    
    68   33  102 1    
    69   33  103 1    
    70   34   35 am   BACKBONE|DICT|INTERRES
    71   34  104 1    
    72   35   36 2    
    73   37   38 2    
    74   37   39 am   BACKBONE|DICT|INTERRES
    75   39   40 1    
    76   39  105 1    
    77   40   41 1    
    78   40   42 1    
    79   40  106 1    
    80   41  107 1    
    81   41  108 1    
    82   41  109 1    
    83   42   43 2    
    84   42   44 am   BACKBONE|DICT|INTERRES
    85   44   45 1    
    86   44  110 1    
    87   45   46 1    
    88   45   47 1    
    89   45  111 1    
    90   46  112 1    
    91   46  113 1    
    92   46  114 1    
    93   47   48 2    
    94   47   49 am   BACKBONE|DICT|INTERRES
    95   49   50 1    
    96   49  115 1    
    97   50   51 1    
    98   50   52 1    
    99   50  116 1    
   100   51  117 1    
   101   51  118 1    
   102   51  119 1    
   103   52   53 2    
   104   52   54 am   BACKBONE|DICT|INTERRES
   105   54   55 1    
   106   54  120 1    
   107   55   56 1    
   108   55   57 1    
   109   55  121 1    
   110   56  122 1    
   111   56  123 1    
   112   56  124 1    
   113   57   58 2    
   114   57   59 am   BACKBONE|DICT|INTERRES
   115   59   60 1    
   116   59  125 1    
   117   60   61 1    
   118   60   62 1    
   119   60  126 1    
   120   61  127 1    
   121   61  128 1    
   122   61  129 1    
   123   62   63 2    
   124   62   64 am   BACKBONE|DICT|INTERRES
   125   64   65 1    
   126   64  130 1    
   127   65   66 1    
   128   65   69 1    
   129   65  131 1    
   130   66   67 am   BACKBONE|DICT|INTERRES
   131   66   68 2    
   132   67  132 1    
   133   67  133 1    
   134   69   70 1    
   135   69  134 1    
   136   69  135 1    
   137   70   71 1    
   138   71  136 1    
   139   71  137 1    
@<TRIPOS>SUBSTRUCTURE
     1 UNK         1 GROUP             0       ****    0 ROOT    
