@<TRIPOS>MOLECULE
3R137
137   139    1
SMALL
USER_CHARGES


@<TRIPOS>ATOM
      1 CA         23.0390   -6.3156   -1.2059 C.3       0 UNK        -0.2020 
      2 C          24.2667   -5.4699   -0.9047 C.2       0 UNK         0.4855 
      3 O          24.3489   -4.8654    0.1654 O.2       0 UNK        -0.5197 
      4 N          25.2201   -5.4061   -1.8436 N.am      1 UNK        -0.4892 
      5 CA         26.4717   -4.6438   -1.7444 C.3       1 UNK         0.0835 
      6 C6         27.5686   -5.2839   -2.6375 C.3       12 UNK        -0.0855 
      7 S7         29.2625   -4.7556   -2.1995 S.3       12 UNK        -0.2931 
      8 C8         29.7694   -3.8820   -3.7209 C.3       12 UNK         0.0378 
      9 C9         30.6226   -2.6526   -3.4473 C.ar      12 UNK        -0.0802 
     10 C10        31.8026   -2.4342   -4.1640 C.ar      12 UNK        -0.0944 
     11 C11        32.5479   -1.2678   -3.9629 C.ar      12 UNK        -0.0787 
     12 C12        32.1052   -0.3144   -3.0407 C.ar      12 UNK        -0.0862 
     13 C13        30.9251   -0.5219   -2.3210 C.ar      12 UNK        -0.0733 
     14 C14        30.1947   -1.6948   -2.5250 C.ar      12 UNK        -0.0832 
     15 C15        30.4345    0.5190   -1.3264 C.3       12 UNK         0.0240 
     16 S16        29.4856    1.8430   -2.1410 S.3       12 UNK        -0.2522 
     17 C17        28.0130    0.9507   -2.7464 C.3       12 UNK        -0.0967 
     18 CA         27.9691    0.8806   -4.2967 C.3       5 UNK         0.0660 
     19 N          27.3053   -0.3308   -4.7910 N.am      5 UNK        -0.4015 
     20 C          27.2471   -0.7020   -6.0795 C.2       4 UNK         0.4946 
     21 O          27.8802   -0.1512   -6.9815 O.2       4 UNK        -0.5353 
     22 CA         26.2747   -1.8393   -6.4418 C.3       4 UNK         0.0277 
     23 CB         26.9668   -3.2097   -6.4748 C.3       4 UNK        -0.1981 
     24 N          25.1168   -1.8983   -5.5479 N.am      4 UNK        -0.4209 
     25 C          24.1027   -1.0231   -5.5643 C.2       3 UNK         0.4942 
     26 O          24.0093   -0.0994   -6.3711 O.2       3 UNK        -0.5208 
     27 CA         23.0417   -1.1780   -4.4614 C.3       3 UNK         0.0250 
     28 CB         22.0383   -2.2853   -4.8211 C.3       3 UNK        -0.1990 
     29 N          23.6298   -1.4522   -3.1468 N.am      3 UNK        -0.4232 
     30 C          24.4222   -0.5989   -2.4826 C.2       2 UNK         0.4993 
     31 O          24.7078    0.5257   -2.8922 O.2       2 UNK        -0.5286 
     32 CA         25.0419   -1.0938   -1.1652 C.3       2 UNK         0.0209 
     33 CB         24.1020   -0.7957    0.0132 C.3       2 UNK        -0.1931 
     34 N          25.3976   -2.5175   -1.1551 N.am      2 UNK        -0.4546 
     35 C          26.2203   -3.1392   -2.0119 C.2       1 UNK         0.5154 
     36 O          26.7227   -2.5772   -2.9871 O.2       1 UNK        -0.5181 
     37 C          27.3181    2.1476   -4.8892 C.2       5 UNK         0.5014 
     38 O          28.0156    2.9712   -5.4815 O.2       5 UNK        -0.5248 
     39 N          25.9876    2.2572   -4.7476 N.am      6 UNK        -0.4434 
     40 CA         25.1695    3.3612   -5.2579 C.3       6 UNK         0.0363 
     41 CB         23.7272    3.2080   -4.7497 C.3       6 UNK        -0.1936 
     42 C          25.1954    3.4825   -6.7908 C.2       6 UNK         0.5081 
     43 O          25.2554    4.5984   -7.3076 O.2       6 UNK        -0.5248 
     44 N          25.1807    2.3389   -7.4893 N.am      7 UNK        -0.4718 
     45 CA         25.3261    2.2530   -8.9459 C.3       7 UNK         0.0273 
     46 CB         24.8736    0.8607   -9.4144 C.3       7 UNK        -0.1935 
     47 C          26.7553    2.5403   -9.4457 C.2       7 UNK         0.5018 
     48 O          26.9226    2.7765  -10.6428 O.2       7 UNK        -0.5186 
     49 N          27.7442    2.5010   -8.5382 N.am      8 UNK        -0.4240 
     50 CA         29.1853    2.6427   -8.7654 C.3       8 UNK         0.0235 
     51 CB         29.5343    4.0760   -9.2192 C.3       8 UNK        -0.2000 
     52 C          29.7163    1.5569   -9.7171 C.2       8 UNK         0.4941 
     53 O          30.2557    1.8728  -10.7808 O.2       8 UNK        -0.5273 
     54 N          29.5241    0.2889   -9.3264 N.am      9 UNK        -0.4262 
     55 CA         29.8615   -0.9223  -10.0851 C.3       9 UNK         0.0264 
     56 CB         29.1605   -2.1220   -9.4232 C.3       9 UNK        -0.1955 
     57 C          31.3779   -1.1623  -10.2703 C.2       9 UNK         0.5031 
     58 O          31.8953   -2.2024   -9.8553 O.2       9 UNK        -0.5390 
     59 N          32.0557   -0.2001  -10.9083 N.am      10 UNK        -0.4204 
     60 CA         33.4651   -0.1464  -11.3184 C.3       10 UNK         0.0237 
     61 CB         33.8038   -1.2683  -12.3203 C.3       10 UNK        -0.1985 
     62 C          34.4803   -0.1083  -10.1630 C.2       10 UNK         0.4970 
     63 O          35.3327    0.7811  -10.1527 O.2       10 UNK        -0.4914 
     64 N          34.3801   -1.0633   -9.2311 N.am      11 UNK        -0.4285 
     65 CA         35.2981   -1.2878   -8.1018 C.3       11 UNK         0.1007 
     66 C          36.7586   -1.6081   -8.5547 C.2       11 UNK         0.5703 
     67 N          37.7559   -1.4357   -7.6965 N.am      11 UNK        -0.7361 
     68 O          36.9971   -2.0752   -9.6678 O.2       11 UNK        -0.4986 
     69 C69        35.1881   -0.1735   -7.0175 C.3       12 UNK        -0.0947 
     70 S70        33.5248   -0.1074   -6.2724 S.3       12 UNK        -0.2240 
     71 C71        33.8320   -1.0395   -4.7415 C.3       12 UNK         0.0194 
     72 H72        22.1419   -5.6977   -1.1789 H         1 UNK         0.0906 
     73 H73        23.0974   -6.7866   -2.1869 H         1 UNK         0.0906 
     74 H74        22.9336   -7.1016   -0.4585 H         1 UNK         0.0906 
     75 H75        25.0843   -5.9052   -2.7119 H         1 UNK         0.3140 
     76 H76        26.8211   -4.7158   -0.7114 H         1 UNK         0.1085 
     77 H77        27.3627   -5.1195   -3.6953 H         1 UNK         0.0836 
     78 H78        27.5504   -6.3676   -2.5093 H         1 UNK         0.0836 
     79 H79        28.8947   -3.5358   -4.2648 H         1 UNK         0.0731 
     80 H80        30.2860   -4.5850   -4.3761 H         1 UNK         0.0731 
     81 H81        32.1357   -3.1631   -4.8904 H         1 UNK         0.1312 
     82 H82        32.6735    0.5935   -2.8902 H         1 UNK         0.1406 
     83 H83        29.2788   -1.8645   -1.9765 H         1 UNK         0.1631 
     84 H84        31.2872    0.9635   -0.8111 H         1 UNK         0.0717 
     85 H85        29.8212    0.0546   -0.5524 H         1 UNK         0.0717 
     86 H86        28.0027   -0.0499   -2.3193 H         1 UNK         0.0934 
     87 H87        27.1279    1.4359   -2.3313 H         1 UNK         0.0934 
     88 H88        28.9946    0.8292   -4.6707 H         1 UNK         0.0739 
     89 H89        26.8263   -0.9071   -4.1077 H         1 UNK         0.3093 
     90 H90        25.9167   -1.6320   -7.4517 H         1 UNK         0.0818 
     91 H91        27.9648   -3.1503   -6.9080 H         1 UNK         0.0819 
     92 H92        26.3955   -3.9183   -7.0745 H         1 UNK         0.0819 
     93 H93        27.0639   -3.6338   -5.4789 H         1 UNK         0.0819 
     94 H94        25.1480   -2.5887   -4.8111 H         1 UNK         0.3041 
     95 H95        22.4979   -0.2332   -4.3935 H         1 UNK         0.0784 
     96 H96        21.5787   -2.0932   -5.7918 H         1 UNK         0.0793 
     97 H97        22.5141   -3.2653   -4.8740 H         1 UNK         0.0793 
     98 H98        21.2321   -2.3424   -4.0894 H         1 UNK         0.0793 
     99 H99        23.4449   -2.3549   -2.7345 H         1 UNK         0.3024 
    100 H100       25.9635   -0.5296   -1.0127 H         1 UNK         0.1171 
    101 H101       24.5737   -1.0339    0.9668 H         1 UNK         0.0786 
    102 H102       23.8335    0.2615    0.0421 H         1 UNK         0.0786 
    103 H103       23.1752   -1.3669   -0.0543 H         1 UNK         0.0786 
    104 H104       24.9861   -3.0899   -0.4229 H         1 UNK         0.2977 
    105 H105       25.4971    1.5481   -4.2038 H         1 UNK         0.3127 
    106 H106       25.5787    4.2871   -4.8484 H         1 UNK         0.0770 
    107 H107       23.2718    2.2819   -5.1022 H         1 UNK         0.0814 
    108 H108       23.1015    4.0325   -5.0940 H         1 UNK         0.0814 
    109 H109       23.6892    3.2041   -3.6601 H         1 UNK         0.0814 
    110 H110       25.0337    1.4644   -6.9919 H         1 UNK         0.2983 
    111 H111       24.6675    2.9975   -9.3986 H         1 UNK         0.0947 
    112 H112       24.9019    0.7855  -10.5022 H         1 UNK         0.0806 
    113 H113       23.8515    0.6467   -9.1013 H         1 UNK         0.0806 
    114 H114       25.5189    0.0771   -9.0177 H         1 UNK         0.0806 
    115 H115       27.4863    2.2858   -7.5825 H         1 UNK         0.3000 
    116 H116       29.6672    2.4749   -7.8007 H         1 UNK         0.0850 
    117 H117       30.6140    4.2043   -9.3039 H         1 UNK         0.0810 
    118 H118       29.1743    4.8147   -8.5030 H         1 UNK         0.0810 
    119 H119       29.1023    4.3134  -10.1918 H         1 UNK         0.0810 
    120 H120       29.0387    0.1366   -8.4431 H         1 UNK         0.3040 
    121 H121       29.4396   -0.8090  -11.0858 H         1 UNK         0.0766 
    122 H122       28.0838   -1.9664   -9.3523 H         1 UNK         0.0812 
    123 H123       29.5440   -2.2951   -8.4172 H         1 UNK         0.0812 
    124 H124       29.3188   -3.0365   -9.9963 H         1 UNK         0.0812 
    125 H125       31.5160    0.6431  -11.1085 H         1 UNK         0.3205 
    126 H126       33.5701    0.8005  -11.8506 H         1 UNK         0.0754 
    127 H127       34.8300   -1.1731  -12.6777 H         1 UNK         0.0769 
    128 H128       33.1517   -1.2297  -13.1929 H         1 UNK         0.0769 
    129 H129       33.7083   -2.2589  -11.8745 H         1 UNK         0.0769 
    130 H130       33.6154   -1.7262   -9.3319 H         1 UNK         0.2981 
    131 H131       34.9576   -2.2180   -7.6461 H         1 UNK         0.0541 
    132 H132       37.5923   -1.0775   -6.7693 H         1 UNK         0.3459 
    133 H133       38.6936   -1.6658   -7.9864 H         1 UNK         0.3459 
    134 H134       35.9085   -0.3246   -6.2132 H         1 UNK         0.0612 
    135 H135       35.4180    0.8043   -7.4426 H         1 UNK         0.0612 
    136 H136       34.2943   -1.9969   -4.9876 H         1 UNK         0.0624 
    137 H137       34.5509   -0.4972   -4.1253 H         1 UNK         0.0624 
@<TRIPOS>BOND
     1    1    2 1    
     2    1   72 1    
     3    1   73 1    
     4    1   74 1    
     5    2    3 2    
     6    2    4 am   BACKBONE|DICT|INTERRES
     7    4    5 1    
     8    4   75 1    
     9    5    6 1    
    10    5   35 1    
    11    5   76 1    
    12    6    7 1    
    13    6   77 1    
    14    6   78 1    
    15    7    8 1    
    16    8    9 1    
    17    8   79 1    
    18    8   80 1    
    19    9   10 ar   
    20    9   14 ar   
    21   10   11 ar   
    22   10   81 1    
    23   11   12 ar   
    24   11   71 1    
    25   12   13 ar   
    26   12   82 1    
    27   13   14 ar   
    28   13   15 1    
    29   14   83 1    
    30   15   16 1    
    31   15   84 1    
    32   15   85 1    
    33   16   17 1    
    34   17   18 1    
    35   17   86 1    
    36   17   87 1    
    37   18   19 1    
    38   18   37 1    
    39   18   88 1    
    40   19   20 am   BACKBONE|DICT|INTERRES
    41   19   89 1    
    42   20   21 2    
    43   20   22 1    
    44   22   23 1    
    45   22   24 1    
    46   22   90 1    
    47   23   91 1    
    48   23   92 1    
    49   23   93 1    
    50   24   25 am   BACKBONE|DICT|INTERRES
    51   24   94 1    
    52   25   26 2    
    53   25   27 1    
    54   27   28 1    
    55   27   29 1    
    56   27   95 1    
    57   28   96 1    
    58   28   97 1    
    59   28   98 1    
    60   29   30 am   BACKBONE|DICT|INTERRES
    61   29   99 1    
    62   30   31 2    
    63   30   32 1    
    64   32   33 1    
    65   32   34 1    
    66   32  100 1    
    67   33  101 1    
    68   33  102 1    
    69   33  103 1    
    70   34   35 am   BACKBONE|DICT|INTERRES
    71   34  104 1    
    72   35   36 2    
    73   37   38 2    
    74   37   39 am   BACKBONE|DICT|INTERRES
    75   39   40 1    
    76   39  105 1    
    77   40   41 1    
    78   40   42 1    
    79   40  106 1    
    80   41  107 1    
    81   41  108 1    
    82   41  109 1    
    83   42   43 2    
    84   42   44 am   BACKBONE|DICT|INTERRES
    85   44   45 1    
    86   44  110 1    
    87   45   46 1    
    88   45   47 1    
    89   45  111 1    
    90   46  112 1    
    91   46  113 1    
    92   46  114 1    
    93   47   48 2    
    94   47   49 am   BACKBONE|DICT|INTERRES
    95   49   50 1    
    96   49  115 1    
    97   50   51 1    
    98   50   52 1    
    99   50  116 1    
   100   51  117 1    
   101   51  118 1    
   102   51  119 1    
   103   52   53 2    
   104   52   54 am   BACKBONE|DICT|INTERRES
   105   54   55 1    
   106   54  120 1    
   107   55   56 1    
   108   55   57 1    
   109   55  121 1    
   110   56  122 1    
   111   56  123 1    
   112   56  124 1    
   113   57   58 2    
   114   57   59 am   BACKBONE|DICT|INTERRES
   115   59   60 1    
   116   59  125 1    
   117   60   61 1    
   118   60   62 1    
   119   60  126 1    
   120   61  127 1    
   121   61  128 1    
   122   61  129 1    
   123   62   63 2    
   124   62   64 am   BACKBONE|DICT|INTERRES
   125   64   65 1    
   126   64  130 1    
   127   65   66 1    
   128   65   69 1    
   129   65  131 1    
   130   66   67 am   BACKBONE|DICT|INTERRES
   131   66   68 2    
   132   67  132 1    
   133   67  133 1    
   134   69   70 1    
   135   69  134 1    
   136   69  135 1    
   137   70   71 1    
   138   71  136 1    
   139   71  137 1    
@<TRIPOS>SUBSTRUCTURE
     1 UNK         1 GROUP             0       ****    0 ROOT    
