@<TRIPOS>MOLECULE
3R137
137   139    1
SMALL
USER_CHARGES


@<TRIPOS>ATOM
      1 CA         23.2082   -5.0194   -2.3207 C.3       0 UNK        -0.2020 
      2 C          24.4489   -4.7368   -1.4863 C.2       0 UNK         0.4855 
      3 O          24.6407   -5.3583   -0.4410 O.2       0 UNK        -0.5197 
      4 N          25.2904   -3.8032   -1.9390 N.am      1 UNK        -0.4892 
      5 CA         26.5167   -3.3731   -1.2753 C.3       1 UNK         0.0835 
      6 C6         27.6973   -4.3189   -1.5948 C.3       12 UNK        -0.0855 
      7 S7         29.2259   -3.9227   -0.6798 S.3       12 UNK        -0.2931 
      8 C8         30.4585   -4.8940   -1.6069 C.3       12 UNK         0.0378 
      9 C9         30.7424   -4.2966   -2.9785 C.ar      12 UNK        -0.0802 
     10 C10        31.6927   -3.2804   -3.1209 C.ar      12 UNK        -0.0944 
     11 C11        31.9680   -2.7363   -4.3793 C.ar      12 UNK        -0.0787 
     12 C12        31.2575   -3.1988   -5.4917 C.ar      12 UNK        -0.0862 
     13 C13        30.2870   -4.1986   -5.3650 C.ar      12 UNK        -0.0733 
     14 C14        30.0630   -4.7671   -4.1068 C.ar      12 UNK        -0.0832 
     15 C15        29.5282   -4.6664   -6.6077 C.3       12 UNK         0.0240 
     16 S16        27.7968   -5.1978   -6.3307 S.3       12 UNK        -0.2522 
     17 C17        26.9915   -3.7304   -5.6015 C.3       12 UNK        -0.0967 
     18 CA         26.5693   -2.6659   -6.6527 C.3       5 UNK         0.0660 
     19 N          25.2795   -2.0310   -6.3473 N.am      5 UNK        -0.4015 
     20 C          24.6294   -1.1995   -7.1784 C.2       4 UNK         0.4946 
     21 O          25.0264   -0.9060   -8.3064 O.2       4 UNK        -0.5353 
     22 CA         23.3257   -0.5607   -6.6656 C.3       4 UNK         0.0277 
     23 CB         22.1358   -1.5036   -6.9074 C.3       4 UNK        -0.1981 
     24 N          23.3456   -0.1487   -5.2569 N.am      4 UNK        -0.4209 
     25 C          24.2309    0.6911   -4.7010 C.2       3 UNK         0.4942 
     26 O          25.2009    1.1540   -5.3009 O.2       3 UNK        -0.5208 
     27 CA         24.0395    1.0591   -3.2234 C.3       3 UNK         0.0250 
     28 CB         22.7933    0.4402   -2.5528 C.3       3 UNK        -0.1990 
     29 N          25.2443    0.6250   -2.5359 N.am      3 UNK        -0.4232 
     30 C          25.7889    1.1296   -1.4291 C.2       2 UNK         0.4993 
     31 O          25.3069    2.0690   -0.7935 O.2       2 UNK        -0.5286 
     32 CA         27.0875    0.4383   -0.9539 C.3       2 UNK         0.0209 
     33 CB         27.6390    1.0472    0.3490 C.3       2 UNK        -0.1931 
     34 N          26.9354   -1.0118   -0.7709 N.am      2 UNK        -0.4546 
     35 C          26.7608   -1.9279   -1.7348 C.2       1 UNK         0.5154 
     36 O          26.7308   -1.6637   -2.9442 O.2       1 UNK        -0.5181 
     37 C          27.6656   -1.6027   -6.8300 C.2       5 UNK         0.5014 
     38 O          28.3093   -1.5535   -7.8785 O.2       5 UNK        -0.5248 
     39 N          27.8246   -0.7494   -5.8092 N.am      6 UNK        -0.4434 
     40 CA         28.8052    0.3318   -5.7930 C.3       6 UNK         0.0363 
     41 CB         28.8598    0.9665   -4.3975 C.3       6 UNK        -0.1936 
     42 C          28.5730    1.3921   -6.8773 C.2       6 UNK         0.5081 
     43 O          29.5434    1.8490   -7.4807 O.2       6 UNK        -0.5248 
     44 N          27.3035    1.7352   -7.1338 N.am      7 UNK        -0.4718 
     45 CA         26.8897    2.6516   -8.1985 C.3       7 UNK         0.0273 
     46 CB         25.3853    2.9402   -8.0755 C.3       7 UNK        -0.1935 
     47 C          27.2285    2.1319   -9.6057 C.2       7 UNK         0.5018 
     48 O          27.6478    2.9230  -10.4513 O.2       7 UNK        -0.5186 
     49 N          27.0575    0.8207   -9.8279 N.am      8 UNK        -0.4240 
     50 CA         27.4290    0.1480  -11.0728 C.3       8 UNK         0.0235 
     51 CB         26.7298   -1.2189  -11.1528 C.3       8 UNK        -0.2000 
     52 C          28.9511   -0.0088  -11.2203 C.2       8 UNK         0.4941 
     53 O          29.4804    0.2469  -12.3027 O.2       8 UNK        -0.5273 
     54 N          29.6216   -0.4415  -10.1437 N.am      9 UNK        -0.4262 
     55 CA         31.0577   -0.7239  -10.1239 C.3       9 UNK         0.0264 
     56 CB         31.3920   -1.5689   -8.8875 C.3       9 UNK        -0.1955 
     57 C          31.9466    0.5282  -10.1525 C.2       9 UNK         0.5031 
     58 O          33.0109    0.4763  -10.7705 O.2       9 UNK        -0.5390 
     59 N          31.5168    1.6001   -9.4669 N.am      10 UNK        -0.4204 
     60 CA         32.2631    2.8325   -9.1862 C.3       10 UNK         0.0237 
     61 CB         32.5524    3.6240  -10.4800 C.3       10 UNK        -0.1985 
     62 C          33.5252    2.5284   -8.3569 C.2       10 UNK         0.4970 
     63 O          34.6428    2.6433   -8.8637 O.2       10 UNK        -0.4914 
     64 N          33.3056    2.0991   -7.1055 N.am      11 UNK        -0.4285 
     65 CA         34.3372    1.6235   -6.1624 C.3       11 UNK         0.1007 
     66 C          35.4702    2.6386   -5.8270 C.2       11 UNK         0.5703 
     67 N          35.2571    3.9413   -5.9715 N.am      11 UNK        -0.7361 
     68 O          36.5581    2.2331   -5.4244 O.2       11 UNK        -0.4986 
     69 C69        33.7218    1.0849   -4.8406 C.3       12 UNK        -0.0947 
     70 S70        32.3381   -0.0791   -5.0715 S.3       12 UNK        -0.2240 
     71 C71        33.0446   -1.6673   -4.5393 C.3       12 UNK         0.0194 
     72 H72        23.1926   -6.0653   -2.6261 H         1 UNK         0.0906 
     73 H73        22.3101   -4.8222   -1.7359 H         1 UNK         0.0906 
     74 H74        23.1695   -4.4040   -3.2192 H         1 UNK         0.0906 
     75 H75        25.0835   -3.2888   -2.7841 H         1 UNK         0.3140 
     76 H76        26.3477   -3.3739   -0.1958 H         1 UNK         0.1085 
     77 H77        27.4258   -5.3472   -1.3509 H         1 UNK         0.0836 
     78 H78        27.8891   -4.3056   -2.6655 H         1 UNK         0.0836 
     79 H79        31.3821   -4.9338   -1.0274 H         1 UNK         0.0731 
     80 H80        30.1155   -5.9258   -1.6998 H         1 UNK         0.0731 
     81 H81        32.2253   -2.9224   -2.2503 H         1 UNK         0.1312 
     82 H82        31.4675   -2.7759   -6.4616 H         1 UNK         0.1406 
     83 H83        29.3427   -5.5663   -4.0001 H         1 UNK         0.1631 
     84 H84        30.0748   -5.5040   -7.0424 H         1 UNK         0.0717 
     85 H85        29.5268   -3.8835   -7.3657 H         1 UNK         0.0717 
     86 H86        26.1106   -4.1083   -5.0810 H         1 UNK         0.0934 
     87 H87        27.6266   -3.3166   -4.8166 H         1 UNK         0.0934 
     88 H88        26.4398   -3.1615   -7.6177 H         1 UNK         0.0739 
     89 H89        24.8867   -2.1995   -5.4346 H         1 UNK         0.3093 
     90 H90        23.1619    0.3430   -7.2561 H         1 UNK         0.0818 
     91 H91        21.1888   -1.0175   -6.6721 H         1 UNK         0.0819 
     92 H92        22.0871   -1.8098   -7.9536 H         1 UNK         0.0819 
     93 H93        22.2073   -2.4106   -6.3059 H         1 UNK         0.0819 
     94 H94        22.5858   -0.4816   -4.6812 H         1 UNK         0.3041 
     95 H95        23.9685    2.1474   -3.1711 H         1 UNK         0.0784 
     96 H96        21.8760    0.7477   -3.0567 H         1 UNK         0.0793 
     97 H97        22.8293   -0.6500   -2.5441 H         1 UNK         0.0793 
     98 H98        22.7071    0.7696   -1.5170 H         1 UNK         0.0793 
     99 H99        25.7391   -0.1514   -2.9699 H         1 UNK         0.3024 
    100 H100       27.8342    0.6031   -1.7310 H         1 UNK         0.1171 
    101 H101       26.9450    0.9182    1.1805 H         1 UNK         0.0786 
    102 H102       27.8182    2.1174    0.2361 H         1 UNK         0.0786 
    103 H103       28.5889    0.5914    0.6294 H         1 UNK         0.0786 
    104 H104       26.9224   -1.3274    0.1884 H         1 UNK         0.2977 
    105 H105       27.2610   -0.8693   -4.9772 H         1 UNK         0.3127 
    106 H106       29.7685   -0.1278   -6.0054 H         1 UNK         0.0770 
    107 H107       29.1543    0.2305   -3.6493 H         1 UNK         0.0814 
    108 H108       27.8960    1.3880   -4.1097 H         1 UNK         0.0814 
    109 H109       29.5953    1.7714   -4.3642 H         1 UNK         0.0814 
    110 H110       26.5654    1.3532   -6.5447 H         1 UNK         0.2983 
    111 H111       27.4313    3.5892   -8.0556 H         1 UNK         0.0947 
    112 H112       25.0569    3.6408   -8.8443 H         1 UNK         0.0806 
    113 H113       25.1445    3.3822   -7.1085 H         1 UNK         0.0806 
    114 H114       24.7920    2.0318   -8.1845 H         1 UNK         0.0806 
    115 H115       26.6682    0.2416   -9.0911 H         1 UNK         0.3000 
    116 H116       27.0747    0.7555  -11.9087 H         1 UNK         0.0850 
    117 H117       26.9870   -1.7369  -12.0776 H         1 UNK         0.0810 
    118 H118       25.6453   -1.1091  -11.1322 H         1 UNK         0.0810 
    119 H119       27.0127   -1.8682  -10.3233 H         1 UNK         0.0810 
    120 H120       29.0971   -0.6852   -9.3043 H         1 UNK         0.3040 
    121 H121       31.2951   -1.3164  -11.0102 H         1 UNK         0.0766 
    122 H122       32.4562   -1.8050   -8.8460 H         1 UNK         0.0812 
    123 H123       30.8489   -2.5135   -8.8988 H         1 UNK         0.0812 
    124 H124       31.1363   -1.0410   -7.9680 H         1 UNK         0.0812 
    125 H125       30.6441    1.5171   -8.9473 H         1 UNK         0.3205 
    126 H126       31.6149    3.4522   -8.5644 H         1 UNK         0.0754 
    127 H127       33.0308    4.5770  -10.2515 H         1 UNK         0.0769 
    128 H128       31.6321    3.8433  -11.0215 H         1 UNK         0.0769 
    129 H129       33.2164    3.0837  -11.1552 H         1 UNK         0.0769 
    130 H130       32.3525    2.0161   -6.7820 H         1 UNK         0.2981 
    131 H131       34.8254    0.7823   -6.6579 H         1 UNK         0.0541 
    132 H132       34.3686    4.2800   -6.3033 H         1 UNK         0.3459 
    133 H133       35.9968    4.5901   -5.7539 H         1 UNK         0.3459 
    134 H134       34.4912    0.6057   -4.2324 H         1 UNK         0.0612 
    135 H135       33.3406    1.9139   -4.2413 H         1 UNK         0.0612 
    136 H136       33.7816   -1.9964   -5.2730 H         1 UNK         0.0624 
    137 H137       33.5797   -1.5243   -3.5993 H         1 UNK         0.0624 
@<TRIPOS>BOND
     1    1    2 1    
     2    1   72 1    
     3    1   73 1    
     4    1   74 1    
     5    2    3 2    
     6    2    4 am   BACKBONE|DICT|INTERRES
     7    4    5 1    
     8    4   75 1    
     9    5    6 1    
    10    5   35 1    
    11    5   76 1    
    12    6    7 1    
    13    6   77 1    
    14    6   78 1    
    15    7    8 1    
    16    8    9 1    
    17    8   79 1    
    18    8   80 1    
    19    9   10 ar   
    20    9   14 ar   
    21   10   11 ar   
    22   10   81 1    
    23   11   12 ar   
    24   11   71 1    
    25   12   13 ar   
    26   12   82 1    
    27   13   14 ar   
    28   13   15 1    
    29   14   83 1    
    30   15   16 1    
    31   15   84 1    
    32   15   85 1    
    33   16   17 1    
    34   17   18 1    
    35   17   86 1    
    36   17   87 1    
    37   18   19 1    
    38   18   37 1    
    39   18   88 1    
    40   19   20 am   BACKBONE|DICT|INTERRES
    41   19   89 1    
    42   20   21 2    
    43   20   22 1    
    44   22   23 1    
    45   22   24 1    
    46   22   90 1    
    47   23   91 1    
    48   23   92 1    
    49   23   93 1    
    50   24   25 am   BACKBONE|DICT|INTERRES
    51   24   94 1    
    52   25   26 2    
    53   25   27 1    
    54   27   28 1    
    55   27   29 1    
    56   27   95 1    
    57   28   96 1    
    58   28   97 1    
    59   28   98 1    
    60   29   30 am   BACKBONE|DICT|INTERRES
    61   29   99 1    
    62   30   31 2    
    63   30   32 1    
    64   32   33 1    
    65   32   34 1    
    66   32  100 1    
    67   33  101 1    
    68   33  102 1    
    69   33  103 1    
    70   34   35 am   BACKBONE|DICT|INTERRES
    71   34  104 1    
    72   35   36 2    
    73   37   38 2    
    74   37   39 am   BACKBONE|DICT|INTERRES
    75   39   40 1    
    76   39  105 1    
    77   40   41 1    
    78   40   42 1    
    79   40  106 1    
    80   41  107 1    
    81   41  108 1    
    82   41  109 1    
    83   42   43 2    
    84   42   44 am   BACKBONE|DICT|INTERRES
    85   44   45 1    
    86   44  110 1    
    87   45   46 1    
    88   45   47 1    
    89   45  111 1    
    90   46  112 1    
    91   46  113 1    
    92   46  114 1    
    93   47   48 2    
    94   47   49 am   BACKBONE|DICT|INTERRES
    95   49   50 1    
    96   49  115 1    
    97   50   51 1    
    98   50   52 1    
    99   50  116 1    
   100   51  117 1    
   101   51  118 1    
   102   51  119 1    
   103   52   53 2    
   104   52   54 am   BACKBONE|DICT|INTERRES
   105   54   55 1    
   106   54  120 1    
   107   55   56 1    
   108   55   57 1    
   109   55  121 1    
   110   56  122 1    
   111   56  123 1    
   112   56  124 1    
   113   57   58 2    
   114   57   59 am   BACKBONE|DICT|INTERRES
   115   59   60 1    
   116   59  125 1    
   117   60   61 1    
   118   60   62 1    
   119   60  126 1    
   120   61  127 1    
   121   61  128 1    
   122   61  129 1    
   123   62   63 2    
   124   62   64 am   BACKBONE|DICT|INTERRES
   125   64   65 1    
   126   64  130 1    
   127   65   66 1    
   128   65   69 1    
   129   65  131 1    
   130   66   67 am   BACKBONE|DICT|INTERRES
   131   66   68 2    
   132   67  132 1    
   133   67  133 1    
   134   69   70 1    
   135   69  134 1    
   136   69  135 1    
   137   70   71 1    
   138   71  136 1    
   139   71  137 1    
@<TRIPOS>SUBSTRUCTURE
     1 UNK         1 GROUP             0       ****    0 ROOT    
