@<TRIPOS>MOLECULE
3R137
137   139    1
SMALL
USER_CHARGES


@<TRIPOS>ATOM
      1 CA         27.0840   -4.2033    3.3452 C.3       0 UNK        -0.2020 
      2 C          27.4280   -3.1329    2.3200 C.2       0 UNK         0.4855 
      3 O          27.3952   -1.9444    2.6418 O.2       0 UNK        -0.5197 
      4 N          27.7673   -3.5448    1.0924 N.am      1 UNK        -0.4892 
      5 CA         28.0794   -2.6572   -0.0344 C.3       1 UNK         0.0835 
      6 C6         28.7978   -3.4151   -1.1784 C.3       12 UNK        -0.0855 
      7 S7         30.4104   -4.0752   -0.6303 S.3       12 UNK        -0.2931 
      8 C8         30.8326   -5.2261   -1.9809 C.3       12 UNK         0.0378 
      9 C9         30.9461   -4.5259   -3.3291 C.ar      12 UNK        -0.0802 
     10 C10        31.8432   -3.4662   -3.5026 C.ar      12 UNK        -0.0944 
     11 C11        31.9140   -2.7874   -4.7221 C.ar      12 UNK        -0.0787 
     12 C12        31.1050   -3.1994   -5.7833 C.ar      12 UNK        -0.0862 
     13 C13        30.2086   -4.2621   -5.6271 C.ar      12 UNK        -0.0733 
     14 C14        30.1387   -4.9260   -4.3988 C.ar      12 UNK        -0.0832 
     15 C15        29.2765   -4.6519   -6.7691 C.3       12 UNK         0.0240 
     16 S16        27.5234   -4.2908   -6.3981 S.3       12 UNK        -0.2522 
     17 C17        27.5817   -2.5298   -5.9308 C.3       12 UNK        -0.0967 
     18 CA         27.0152   -1.5962   -7.0268 C.3       5 UNK         0.0660 
     19 N          25.5493   -1.5314   -6.9812 N.am      5 UNK        -0.4015 
     20 C          24.7535   -0.7521   -7.7318 C.2       4 UNK         0.4946 
     21 O          25.1646    0.0347   -8.5842 O.2       4 UNK        -0.5353 
     22 CA         23.2409   -0.8368   -7.4682 C.3       4 UNK         0.0277 
     23 CB         22.5911   -1.8651   -8.4073 C.3       4 UNK        -0.1981 
     24 N          22.9317   -1.1740   -6.0764 N.am      4 UNK        -0.4209 
     25 C          23.1307   -0.3509   -5.0370 C.2       3 UNK         0.4942 
     26 O          23.4702    0.8283   -5.1603 O.2       3 UNK        -0.5208 
     27 CA         22.9191   -0.9428   -3.6269 C.3       3 UNK         0.0250 
     28 CB         23.0109   -2.4864   -3.5825 C.3       3 UNK        -0.1990 
     29 N          23.8219   -0.3708   -2.6191 N.am      3 UNK        -0.4232 
     30 C          25.1633   -0.3229   -2.6554 C.2       2 UNK         0.4993 
     31 O          25.8436   -0.6843   -3.6182 O.2       2 UNK        -0.5286 
     32 CA         25.8850    0.2273   -1.4074 C.3       2 UNK         0.0209 
     33 CB         24.9457    0.6062   -0.2376 C.3       2 UNK        -0.1931 
     34 N          26.9448   -0.6771   -0.9377 N.am      2 UNK        -0.4546 
     35 C          26.8027   -1.9522   -0.5415 C.2       1 UNK         0.5154 
     36 O          25.7337   -2.5697   -0.5573 O.2       1 UNK        -0.5181 
     37 C          27.6870   -0.2150   -6.9292 C.2       5 UNK         0.5014 
     38 O          28.6318    0.0405   -7.6768 O.2       5 UNK        -0.5248 
     39 N          27.1748    0.6540   -6.0471 N.am      6 UNK        -0.4434 
     40 CA         27.6416    2.0303   -5.8556 C.3       6 UNK         0.0363 
     41 CB         26.8502    2.6730   -4.7066 C.3       6 UNK        -0.1936 
     42 C          27.5722    2.9180   -7.1143 C.2       6 UNK         0.5081 
     43 O          28.3469    3.8696   -7.2101 O.2       6 UNK        -0.5248 
     44 N          26.6648    2.5998   -8.0470 N.am      7 UNK        -0.4718 
     45 CA         26.5234    3.2839   -9.3320 C.3       7 UNK         0.0273 
     46 CB         25.0330    3.5540   -9.5983 C.3       7 UNK        -0.1935 
     47 C          27.1315    2.4587  -10.4756 C.2       7 UNK         0.5018 
     48 O          27.8142    3.0249  -11.3296 O.2       7 UNK        -0.5186 
     49 N          26.8539    1.1476  -10.4902 N.am      8 UNK        -0.4240 
     50 CA         27.2155    0.2304  -11.5720 C.3       8 UNK         0.0235 
     51 CB         26.3780   -1.0532  -11.4453 C.3       8 UNK        -0.2000 
     52 C          28.7106   -0.1177  -11.6315 C.2       8 UNK         0.4941 
     53 O          29.2248   -0.3294  -12.7310 O.2       8 UNK        -0.5273 
     54 N          29.3688   -0.2001  -10.4688 N.am      9 UNK        -0.4262 
     55 CA         30.7684   -0.6089  -10.3363 C.3       9 UNK         0.0264 
     56 CB         30.8362   -1.9556   -9.5980 C.3       9 UNK        -0.1955 
     57 C          31.6015    0.4554   -9.6144 C.2       9 UNK         0.5031 
     58 O          32.6991    0.7688  -10.0770 O.2       9 UNK        -0.5390 
     59 N          31.0835    0.9795   -8.4936 N.am      10 UNK        -0.4204 
     60 CA         31.6299    2.0243   -7.6126 C.3       10 UNK         0.0237 
     61 CB         31.7530    3.3654   -8.3609 C.3       10 UNK        -0.1985 
     62 C          32.9461    1.6805   -6.8837 C.2       10 UNK         0.4970 
     63 O          33.1210    2.1211   -5.7476 O.2       10 UNK        -0.4914 
     64 N          33.8366    0.9197   -7.5315 N.am      11 UNK        -0.4285 
     65 CA         35.1819    0.5292   -7.0708 C.3       11 UNK         0.1007 
     66 C          36.1962    1.7117   -6.9764 C.2       11 UNK         0.5703 
     67 N          35.9395    2.8555   -7.6009 N.am      11 UNK        -0.7361 
     68 O          37.2507    1.5859   -6.3575 O.2       11 UNK        -0.4986 
     69 C69        35.1730   -0.3577   -5.7904 C.3       12 UNK        -0.0947 
     70 S70        34.2220   -1.9038   -5.9820 S.3       12 UNK        -0.2240 
     71 C71        32.8175   -1.5734   -4.8770 C.3       12 UNK         0.0194 
     72 H72        27.1694   -5.2078    2.9310 H         1 UNK         0.0906 
     73 H73        27.7539   -4.1320    4.2016 H         1 UNK         0.0906 
     74 H74        26.0622   -4.0685    3.6993 H         1 UNK         0.0906 
     75 H75        27.7687   -4.5319    0.8797 H         1 UNK         0.3140 
     76 H76        28.7581   -1.8856    0.3373 H         1 UNK         0.1085 
     77 H77        28.1780   -4.2331   -1.5510 H         1 UNK         0.0836 
     78 H78        28.9764   -2.7525   -2.0281 H         1 UNK         0.0836 
     79 H79        31.7845   -5.7064   -1.7510 H         1 UNK         0.0731 
     80 H80        30.0863   -6.0216   -2.0132 H         1 UNK         0.0731 
     81 H81        32.4606   -3.1496   -2.6729 H         1 UNK         0.1312 
     82 H82        31.1587   -2.6672   -6.7209 H         1 UNK         0.1406 
     83 H83        29.4329   -5.7361   -4.2726 H         1 UNK         0.1631 
     84 H84        29.3831   -5.7183   -6.9724 H         1 UNK         0.0717 
     85 H85        29.5539   -4.1365   -7.6896 H         1 UNK         0.0717 
     86 H86        28.6028   -2.2559   -5.6710 H         1 UNK         0.0934 
     87 H87        27.0285   -2.4180   -4.9987 H         1 UNK         0.0934 
     88 H88        27.2852   -1.9964   -8.0063 H         1 UNK         0.0739 
     89 H89        25.1113   -2.1310   -6.2988 H         1 UNK         0.3093 
     90 H90        22.8139    0.1446   -7.6868 H         1 UNK         0.0818 
     91 H91        21.5080   -1.8851   -8.2856 H         1 UNK         0.0819 
     92 H92        22.7933   -1.6198   -9.4511 H         1 UNK         0.0819 
     93 H93        22.9688   -2.8732   -8.2313 H         1 UNK         0.0819 
     94 H94        22.6182   -2.1162   -5.8919 H         1 UNK         0.3041 
     95 H95        21.9089   -0.6587   -3.3288 H         1 UNK         0.0784 
     96 H96        22.2233   -2.9572   -4.1716 H         1 UNK         0.0793 
     97 H97        23.9721   -2.8471   -3.9518 H         1 UNK         0.0793 
     98 H98        22.8980   -2.8541   -2.5622 H         1 UNK         0.0793 
     99 H99        23.3696   -0.0066   -1.7929 H         1 UNK         0.3024 
    100 H100       26.3827    1.1417   -1.7312 H         1 UNK         0.1171 
    101 H101       25.5132    1.0099    0.6012 H         1 UNK         0.0786 
    102 H102       24.3824   -0.2510    0.1338 H         1 UNK         0.0786 
    103 H103       24.2319    1.3767   -0.5323 H         1 UNK         0.0786 
    104 H104       27.8731   -0.2778   -0.9271 H         1 UNK         0.2977 
    105 H105       26.4315    0.3332   -5.4346 H         1 UNK         0.3127 
    106 H106       28.6910    1.9785   -5.5591 H         1 UNK         0.0770 
    107 H107       25.7776    2.6722   -4.9062 H         1 UNK         0.0814 
    108 H108       27.1547    3.7088   -4.5494 H         1 UNK         0.0814 
    109 H109       27.0201    2.1433   -3.7708 H         1 UNK         0.0814 
    110 H110       26.0901    1.7763   -7.9066 H         1 UNK         0.2983 
    111 H111       27.0388    4.2468   -9.3100 H         1 UNK         0.0947 
    112 H112       24.8924    4.0584  -10.5554 H         1 UNK         0.0806 
    113 H113       24.6052    4.1960   -8.8282 H         1 UNK         0.0806 
    114 H114       24.4504    2.6321   -9.6255 H         1 UNK         0.0806 
    115 H115       26.2574    0.7648   -9.7568 H         1 UNK         0.3000 
    116 H116       26.9548    0.7109  -12.5176 H         1 UNK         0.0850 
    117 H117       26.5925   -1.7433  -12.2625 H         1 UNK         0.0810 
    118 H118       25.3103   -0.8350  -11.4770 H         1 UNK         0.0810 
    119 H119       26.5834   -1.5782  -10.5116 H         1 UNK         0.0810 
    120 H120       28.8732    0.0092   -9.6074 H         1 UNK         0.3040 
    121 H121       31.2237   -0.7461  -11.3194 H         1 UNK         0.0766 
    122 H122       31.8671   -2.2389   -9.3798 H         1 UNK         0.0812 
    123 H123       30.2929   -1.9193   -8.6548 H         1 UNK         0.0812 
    124 H124       30.4000   -2.7536  -10.1989 H         1 UNK         0.0812 
    125 H125       30.1863    0.6050   -8.1805 H         1 UNK         0.3205 
    126 H126       30.8793    2.1580   -6.8323 H         1 UNK         0.0754 
    127 H127       32.0669    4.1619   -7.6848 H         1 UNK         0.0769 
    128 H128       30.7962    3.6651   -8.7894 H         1 UNK         0.0769 
    129 H129       32.4825    3.3181   -9.1698 H         1 UNK         0.0769 
    130 H130       33.6081    0.6722   -8.4914 H         1 UNK         0.2981 
    131 H131       35.5791   -0.0900   -7.8756 H         1 UNK         0.0541 
    132 H132       35.0908    2.9694   -8.1306 H         1 UNK         0.3459 
    133 H133       36.6064    3.6089   -7.5437 H         1 UNK         0.3459 
    134 H134       34.8053    0.2075   -4.9331 H         1 UNK         0.0612 
    135 H135       36.1900   -0.6566   -5.5313 H         1 UNK         0.0612 
    136 H136       32.2357   -0.7399   -5.2719 H         1 UNK         0.0624 
    137 H137       33.1944   -1.2547   -3.9039 H         1 UNK         0.0624 
@<TRIPOS>BOND
     1    1    2 1    
     2    1   72 1    
     3    1   73 1    
     4    1   74 1    
     5    2    3 2    
     6    2    4 am   BACKBONE|DICT|INTERRES
     7    4    5 1    
     8    4   75 1    
     9    5    6 1    
    10    5   35 1    
    11    5   76 1    
    12    6    7 1    
    13    6   77 1    
    14    6   78 1    
    15    7    8 1    
    16    8    9 1    
    17    8   79 1    
    18    8   80 1    
    19    9   10 ar   
    20    9   14 ar   
    21   10   11 ar   
    22   10   81 1    
    23   11   12 ar   
    24   11   71 1    
    25   12   13 ar   
    26   12   82 1    
    27   13   14 ar   
    28   13   15 1    
    29   14   83 1    
    30   15   16 1    
    31   15   84 1    
    32   15   85 1    
    33   16   17 1    
    34   17   18 1    
    35   17   86 1    
    36   17   87 1    
    37   18   19 1    
    38   18   37 1    
    39   18   88 1    
    40   19   20 am   BACKBONE|DICT|INTERRES
    41   19   89 1    
    42   20   21 2    
    43   20   22 1    
    44   22   23 1    
    45   22   24 1    
    46   22   90 1    
    47   23   91 1    
    48   23   92 1    
    49   23   93 1    
    50   24   25 am   BACKBONE|DICT|INTERRES
    51   24   94 1    
    52   25   26 2    
    53   25   27 1    
    54   27   28 1    
    55   27   29 1    
    56   27   95 1    
    57   28   96 1    
    58   28   97 1    
    59   28   98 1    
    60   29   30 am   BACKBONE|DICT|INTERRES
    61   29   99 1    
    62   30   31 2    
    63   30   32 1    
    64   32   33 1    
    65   32   34 1    
    66   32  100 1    
    67   33  101 1    
    68   33  102 1    
    69   33  103 1    
    70   34   35 am   BACKBONE|DICT|INTERRES
    71   34  104 1    
    72   35   36 2    
    73   37   38 2    
    74   37   39 am   BACKBONE|DICT|INTERRES
    75   39   40 1    
    76   39  105 1    
    77   40   41 1    
    78   40   42 1    
    79   40  106 1    
    80   41  107 1    
    81   41  108 1    
    82   41  109 1    
    83   42   43 2    
    84   42   44 am   BACKBONE|DICT|INTERRES
    85   44   45 1    
    86   44  110 1    
    87   45   46 1    
    88   45   47 1    
    89   45  111 1    
    90   46  112 1    
    91   46  113 1    
    92   46  114 1    
    93   47   48 2    
    94   47   49 am   BACKBONE|DICT|INTERRES
    95   49   50 1    
    96   49  115 1    
    97   50   51 1    
    98   50   52 1    
    99   50  116 1    
   100   51  117 1    
   101   51  118 1    
   102   51  119 1    
   103   52   53 2    
   104   52   54 am   BACKBONE|DICT|INTERRES
   105   54   55 1    
   106   54  120 1    
   107   55   56 1    
   108   55   57 1    
   109   55  121 1    
   110   56  122 1    
   111   56  123 1    
   112   56  124 1    
   113   57   58 2    
   114   57   59 am   BACKBONE|DICT|INTERRES
   115   59   60 1    
   116   59  125 1    
   117   60   61 1    
   118   60   62 1    
   119   60  126 1    
   120   61  127 1    
   121   61  128 1    
   122   61  129 1    
   123   62   63 2    
   124   62   64 am   BACKBONE|DICT|INTERRES
   125   64   65 1    
   126   64  130 1    
   127   65   66 1    
   128   65   69 1    
   129   65  131 1    
   130   66   67 am   BACKBONE|DICT|INTERRES
   131   66   68 2    
   132   67  132 1    
   133   67  133 1    
   134   69   70 1    
   135   69  134 1    
   136   69  135 1    
   137   70   71 1    
   138   71  136 1    
   139   71  137 1    
@<TRIPOS>SUBSTRUCTURE
     1 UNK         1 GROUP             0       ****    0 ROOT    
