@<TRIPOS>MOLECULE
3R137
137   139    1
SMALL
USER_CHARGES


@<TRIPOS>ATOM
      1 CA         23.3751   -5.2624   -2.4929 C.3       0 UNK        -0.2020 
      2 C          24.2035   -4.2896   -1.6681 C.2       0 UNK         0.4855 
      3 O          23.6737   -3.2895   -1.1823 O.2       0 UNK        -0.5197 
      4 N          25.5014   -4.5795   -1.5154 N.am      1 UNK        -0.4892 
      5 CA         26.5125   -3.7916   -0.7997 C.3       1 UNK         0.0835 
      6 C6         27.8988   -4.5030   -0.7722 C.3       12 UNK        -0.0855 
      7 S7         28.3170   -5.4734   -2.2722 S.3       12 UNK        -0.2931 
      8 C8         30.1178   -5.2472   -2.4107 C.3       12 UNK         0.0378 
      9 C9         30.4701   -4.0746   -3.3129 C.ar      12 UNK        -0.0802 
     10 C10        30.6737   -4.2748   -4.6818 C.ar      12 UNK        -0.0944 
     11 C11        31.0108   -3.2030   -5.5143 C.ar      12 UNK        -0.0787 
     12 C12        31.1256   -1.9194   -4.9728 C.ar      12 UNK        -0.0862 
     13 C13        30.9309   -1.7086   -3.6053 C.ar      12 UNK        -0.0733 
     14 C14        30.6104   -2.7915   -2.7805 C.ar      12 UNK        -0.0832 
     15 C15        31.0863   -0.3207   -3.0041 C.3       12 UNK         0.0240 
     16 S16        29.5362    0.2395   -2.2374 S.3       12 UNK        -0.2522 
     17 C17        28.8528    1.3834   -3.4765 C.3       12 UNK        -0.0967 
     18 CA         28.5285    0.7884   -4.8737 C.3       5 UNK         0.0660 
     19 N          27.7385   -0.4513   -4.8478 N.am      5 UNK        -0.4015 
     20 C          27.3664   -1.1359   -5.9449 C.2       4 UNK         0.4946 
     21 O          27.7072   -0.8423   -7.0902 O.2       4 UNK        -0.5353 
     22 CA         26.3774   -2.2942   -5.7577 C.3       4 UNK         0.0277 
     23 CB         27.1003   -3.5881   -5.3524 C.3       4 UNK        -0.1981 
     24 N          25.3380   -1.9461   -4.7880 N.am      4 UNK        -0.4209 
     25 C          24.3481   -1.0746   -5.0417 C.2       3 UNK         0.4942 
     26 O          24.1641   -0.5553   -6.1420 O.2       3 UNK        -0.5208 
     27 CA         23.4350   -0.6722   -3.8705 C.3       3 UNK         0.0250 
     28 CB         22.2040   -1.5876   -3.7946 C.3       3 UNK        -0.1990 
     29 N          24.1378   -0.6647   -2.5856 N.am      3 UNK        -0.4232 
     30 C          25.0896    0.2270   -2.2695 C.2       2 UNK         0.4993 
     31 O          25.4076    1.1668   -2.9988 O.2       2 UNK        -0.5286 
     32 CA         25.8546    0.0105   -0.9512 C.3       2 UNK         0.0209 
     33 CB         25.1785    0.7803    0.1939 C.3       2 UNK        -0.1931 
     34 N          26.0014   -1.3998   -0.5728 N.am      2 UNK        -0.4546 
     35 C          26.5860   -2.3431   -1.3266 C.2       1 UNK         0.5154 
     36 O          27.0947   -2.1110   -2.4225 O.2       1 UNK        -0.5181 
     37 C          27.8487    1.8753   -5.7295 C.2       5 UNK         0.5014 
     38 O          28.5005    2.4639   -6.5903 O.2       5 UNK        -0.5248 
     39 N          26.5496    2.1072   -5.4879 N.am      6 UNK        -0.4434 
     40 CA         25.7269    3.0712   -6.2211 C.3       6 UNK         0.0363 
     41 CB         24.3433    3.1728   -5.5599 C.3       6 UNK        -0.1936 
     42 C          25.5890    2.7441   -7.7180 C.2       6 UNK         0.5081 
     43 O          25.6369    3.6601   -8.5393 O.2       6 UNK        -0.5248 
     44 N          25.4220    1.4559   -8.0466 N.am      7 UNK        -0.4718 
     45 CA         25.2973    0.9691   -9.4203 C.3       7 UNK         0.0273 
     46 CB         24.7286   -0.4594   -9.4123 C.3       7 UNK        -0.1935 
     47 C          26.6209    1.0211  -10.2000 C.2       7 UNK         0.5018 
     48 O          26.6333    1.5078  -11.3316 O.2       7 UNK        -0.5186 
     49 N          27.6986    0.4956   -9.6027 N.am      8 UNK        -0.4240 
     50 CA         28.9943    0.3253  -10.2644 C.3       8 UNK         0.0235 
     51 CB         29.6994   -0.9017   -9.6666 C.3       8 UNK        -0.2000 
     52 C          29.9071    1.5597  -10.1867 C.2       8 UNK         0.4941 
     53 O          30.8681    1.6251  -10.9553 O.2       8 UNK        -0.5273 
     54 N          29.6413    2.4905   -9.2567 N.am      9 UNK        -0.4262 
     55 CA         30.4072    3.7042   -8.9199 C.3       9 UNK         0.0264 
     56 CB         30.5538    4.6538  -10.1255 C.3       9 UNK        -0.1955 
     57 C          31.7671    3.4157   -8.2543 C.2       9 UNK         0.5031 
     58 O          32.0865    4.0332   -7.2369 O.2       9 UNK        -0.5390 
     59 N          32.5230    2.4735   -8.8223 N.am      10 UNK        -0.4204 
     60 CA         33.7071    1.8406   -8.2485 C.3       10 UNK         0.0237 
     61 CB         34.9318    2.1712   -9.1261 C.3       10 UNK        -0.1985 
     62 C          33.4096    0.3345   -8.1304 C.2       10 UNK         0.4970 
     63 O          32.2720   -0.0276   -7.8299 O.2       10 UNK        -0.4914 
     64 N          34.4077   -0.5188   -8.3761 N.am      11 UNK        -0.4285 
     65 CA         34.2732   -1.9758   -8.4916 C.3       11 UNK         0.1007 
     66 C          35.4868   -2.5768   -9.2525 C.2       11 UNK         0.5703 
     67 N          35.4829   -3.8772   -9.5080 N.am      11 UNK        -0.7361 
     68 O          36.4311   -1.8766   -9.6179 O.2       11 UNK        -0.4986 
     69 C69        33.9809   -2.6755   -7.1296 C.3       12 UNK        -0.0947 
     70 S70        32.8995   -4.1353   -7.3210 S.3       12 UNK        -0.2240 
     71 C71        31.2485   -3.4357   -6.9984 C.3       12 UNK         0.0194 
     72 H72        22.3737   -5.3572   -2.0735 H         1 UNK         0.0906 
     73 H73        23.2848   -4.9076   -3.5189 H         1 UNK         0.0906 
     74 H74        23.8251   -6.2548   -2.5135 H         1 UNK         0.0906 
     75 H75        25.8818   -5.3939   -1.9792 H         1 UNK         0.3140 
     76 H76        26.1731   -3.7319    0.2367 H         1 UNK         0.1085 
     77 H77        27.9131   -5.2072    0.0611 H         1 UNK         0.0836 
     78 H78        28.6970   -3.7917   -0.5531 H         1 UNK         0.0836 
     79 H79        30.5513   -6.1628   -2.8160 H         1 UNK         0.0731 
     80 H80        30.5603   -5.1199   -1.4215 H         1 UNK         0.0731 
     81 H81        30.5761   -5.2671   -5.1005 H         1 UNK         0.1312 
     82 H82        31.3770   -1.0878   -5.6163 H         1 UNK         0.1406 
     83 H83        30.4581   -2.6276   -1.7229 H         1 UNK         0.1631 
     84 H84        31.4231    0.4028   -3.7481 H         1 UNK         0.0717 
     85 H85        31.8621   -0.3558   -2.2381 H         1 UNK         0.0717 
     86 H86        27.9596    1.8213   -3.0282 H         1 UNK         0.0934 
     87 H87        29.5578    2.2106   -3.5828 H         1 UNK         0.0934 
     88 H88        29.4719    0.5418   -5.3638 H         1 UNK         0.0739 
     89 H89        27.4762   -0.8114   -3.9351 H         1 UNK         0.3093 
     90 H90        25.8911   -2.4774   -6.7184 H         1 UNK         0.0818 
     91 H91        27.7160   -3.4536   -4.4641 H         1 UNK         0.0819 
     92 H92        26.3980   -4.3980   -5.1561 H         1 UNK         0.0819 
     93 H93        27.7675   -3.9196   -6.1488 H         1 UNK         0.0819 
     94 H94        25.4937   -2.2543   -3.8365 H         1 UNK         0.3041 
     95 H95        23.0829    0.3434   -4.0637 H         1 UNK         0.0784 
     96 H96        21.6334   -1.5475   -4.7235 H         1 UNK         0.0793 
     97 H97        22.4809   -2.6276   -3.6294 H         1 UNK         0.0793 
     98 H98        21.5340   -1.2868   -2.9891 H         1 UNK         0.0793 
     99 H99        23.9470   -1.4325   -1.9475 H         1 UNK         0.3024 
    100 H100       26.8565    0.4187   -1.0911 H         1 UNK         0.1171 
    101 H101       25.7633    0.7212    1.1120 H         1 UNK         0.0786 
    102 H102       25.0762    1.8378   -0.0548 H         1 UNK         0.0786 
    103 H103       24.1795    0.3964    0.4045 H         1 UNK         0.0786 
    104 H104       25.5557   -1.6798    0.2894 H         1 UNK         0.2977 
    105 H105       26.1022    1.6205   -4.7135 H         1 UNK         0.3127 
    106 H106       26.2149    4.0448   -6.1406 H         1 UNK         0.0770 
    107 H107       23.8095    2.2226   -5.5956 H         1 UNK         0.0814 
    108 H108       23.7232    3.9150   -6.0643 H         1 UNK         0.0814 
    109 H109       24.4232    3.4723   -4.5147 H         1 UNK         0.0814 
    110 H110       25.3409    0.7663   -7.3068 H         1 UNK         0.2983 
    111 H111       24.5831    1.6100   -9.9424 H         1 UNK         0.0947 
    112 H112       24.6227   -0.8450  -10.4271 H         1 UNK         0.0806 
    113 H113       23.7419   -0.4892   -8.9496 H         1 UNK         0.0806 
    114 H114       25.3732   -1.1484   -8.8652 H         1 UNK         0.0806 
    115 H115       27.6112    0.1024   -8.6653 H         1 UNK         0.3000 
    116 H116       28.8258    0.1224  -11.3244 H         1 UNK         0.0850 
    117 H117       30.6679   -1.0730  -10.1385 H         1 UNK         0.0810 
    118 H118       29.1063   -1.8066   -9.7984 H         1 UNK         0.0810 
    119 H119       29.8764   -0.7720   -8.5990 H         1 UNK         0.0810 
    120 H120       28.8902    2.2935   -8.6022 H         1 UNK         0.3040 
    121 H121       29.8036    4.2252   -8.1751 H         1 UNK         0.0766 
    122 H122       29.5835    4.8922  -10.5611 H         1 UNK         0.0812 
    123 H123       31.1799    4.2307  -10.9112 H         1 UNK         0.0812 
    124 H124       31.0132    5.5949   -9.8210 H         1 UNK         0.0812 
    125 H125       32.1249    2.0146   -9.6398 H         1 UNK         0.3205 
    126 H126       33.8859    2.2119   -7.2376 H         1 UNK         0.0754 
    127 H127       35.8556    1.8008   -8.6802 H         1 UNK         0.0769 
    128 H128       35.0485    3.2492   -9.2411 H         1 UNK         0.0769 
    129 H129       34.8439    1.7417  -10.1252 H         1 UNK         0.0769 
    130 H130       35.3177   -0.1679   -8.6451 H         1 UNK         0.2981 
    131 H131       33.4193   -2.1291   -9.1549 H         1 UNK         0.0541 
    132 H132       34.7202   -4.4571   -9.1917 H         1 UNK         0.3459 
    133 H133       36.2601   -4.2870  -10.0020 H         1 UNK         0.3459 
    134 H134       34.9060   -2.9839   -6.6395 H         1 UNK         0.0612 
    135 H135       33.5070   -1.9899   -6.4287 H         1 UNK         0.0612 
    136 H136       31.1318   -2.5092   -7.5606 H         1 UNK         0.0624 
    137 H137       30.4928   -4.1224   -7.3821 H         1 UNK         0.0624 
@<TRIPOS>BOND
     1    1    2 1    
     2    1   72 1    
     3    1   73 1    
     4    1   74 1    
     5    2    3 2    
     6    2    4 am   BACKBONE|DICT|INTERRES
     7    4    5 1    
     8    4   75 1    
     9    5    6 1    
    10    5   35 1    
    11    5   76 1    
    12    6    7 1    
    13    6   77 1    
    14    6   78 1    
    15    7    8 1    
    16    8    9 1    
    17    8   79 1    
    18    8   80 1    
    19    9   10 ar   
    20    9   14 ar   
    21   10   11 ar   
    22   10   81 1    
    23   11   12 ar   
    24   11   71 1    
    25   12   13 ar   
    26   12   82 1    
    27   13   14 ar   
    28   13   15 1    
    29   14   83 1    
    30   15   16 1    
    31   15   84 1    
    32   15   85 1    
    33   16   17 1    
    34   17   18 1    
    35   17   86 1    
    36   17   87 1    
    37   18   19 1    
    38   18   37 1    
    39   18   88 1    
    40   19   20 am   BACKBONE|DICT|INTERRES
    41   19   89 1    
    42   20   21 2    
    43   20   22 1    
    44   22   23 1    
    45   22   24 1    
    46   22   90 1    
    47   23   91 1    
    48   23   92 1    
    49   23   93 1    
    50   24   25 am   BACKBONE|DICT|INTERRES
    51   24   94 1    
    52   25   26 2    
    53   25   27 1    
    54   27   28 1    
    55   27   29 1    
    56   27   95 1    
    57   28   96 1    
    58   28   97 1    
    59   28   98 1    
    60   29   30 am   BACKBONE|DICT|INTERRES
    61   29   99 1    
    62   30   31 2    
    63   30   32 1    
    64   32   33 1    
    65   32   34 1    
    66   32  100 1    
    67   33  101 1    
    68   33  102 1    
    69   33  103 1    
    70   34   35 am   BACKBONE|DICT|INTERRES
    71   34  104 1    
    72   35   36 2    
    73   37   38 2    
    74   37   39 am   BACKBONE|DICT|INTERRES
    75   39   40 1    
    76   39  105 1    
    77   40   41 1    
    78   40   42 1    
    79   40  106 1    
    80   41  107 1    
    81   41  108 1    
    82   41  109 1    
    83   42   43 2    
    84   42   44 am   BACKBONE|DICT|INTERRES
    85   44   45 1    
    86   44  110 1    
    87   45   46 1    
    88   45   47 1    
    89   45  111 1    
    90   46  112 1    
    91   46  113 1    
    92   46  114 1    
    93   47   48 2    
    94   47   49 am   BACKBONE|DICT|INTERRES
    95   49   50 1    
    96   49  115 1    
    97   50   51 1    
    98   50   52 1    
    99   50  116 1    
   100   51  117 1    
   101   51  118 1    
   102   51  119 1    
   103   52   53 2    
   104   52   54 am   BACKBONE|DICT|INTERRES
   105   54   55 1    
   106   54  120 1    
   107   55   56 1    
   108   55   57 1    
   109   55  121 1    
   110   56  122 1    
   111   56  123 1    
   112   56  124 1    
   113   57   58 2    
   114   57   59 am   BACKBONE|DICT|INTERRES
   115   59   60 1    
   116   59  125 1    
   117   60   61 1    
   118   60   62 1    
   119   60  126 1    
   120   61  127 1    
   121   61  128 1    
   122   61  129 1    
   123   62   63 2    
   124   62   64 am   BACKBONE|DICT|INTERRES
   125   64   65 1    
   126   64  130 1    
   127   65   66 1    
   128   65   69 1    
   129   65  131 1    
   130   66   67 am   BACKBONE|DICT|INTERRES
   131   66   68 2    
   132   67  132 1    
   133   67  133 1    
   134   69   70 1    
   135   69  134 1    
   136   69  135 1    
   137   70   71 1    
   138   71  136 1    
   139   71  137 1    
@<TRIPOS>SUBSTRUCTURE
     1 UNK         1 GROUP             0       ****    0 ROOT    
