@<TRIPOS>MOLECULE
3R137
137   139    1
SMALL
USER_CHARGES


@<TRIPOS>ATOM
      1 CA         24.8713   -2.4429    3.1403 C.3       0 UNK        -0.2020 
      2 C          26.3503   -2.3786    2.7887 C.2       0 UNK         0.4855 
      3 O          27.1960   -2.4610    3.6802 O.2       0 UNK        -0.5197 
      4 N          26.6671   -2.2290    1.4995 N.am      1 UNK        -0.4892 
      5 CA         28.0277   -2.1307    0.9733 C.3       1 UNK         0.0835 
      6 C6         28.7642   -3.5030    0.8985 C.3       12 UNK        -0.0855 
      7 S7         27.9364   -4.7795   -0.1226 S.3       12 UNK        -0.2931 
      8 C8         29.3561   -5.6735   -0.8335 C.3       12 UNK         0.0378 
      9 C9         29.8787   -5.0403   -2.1188 C.ar      12 UNK        -0.0802 
     10 C10        30.9374   -4.1243   -2.0833 C.ar      12 UNK        -0.0944 
     11 C11        31.4813   -3.6042   -3.2639 C.ar      12 UNK        -0.0787 
     12 C12        30.9635   -4.0449   -4.4878 C.ar      12 UNK        -0.0862 
     13 C13        29.8829   -4.9241   -4.5443 C.ar      12 UNK        -0.0733 
     14 C14        29.3396   -5.4180   -3.3546 C.ar      12 UNK        -0.0832 
     15 C15        29.3424   -5.3583   -5.9017 C.3       12 UNK         0.0240 
     16 S16        27.9832   -4.2981   -6.4958 S.3       12 UNK        -0.2522 
     17 C17        28.7752   -2.6579   -6.6832 C.3       12 UNK        -0.0967 
     18 CA         27.8998   -1.6387   -7.4603 C.3       5 UNK         0.0660 
     19 N          26.5148   -1.5980   -6.9807 N.am      5 UNK        -0.4015 
     20 C          25.4889   -1.0754   -7.6671 C.2       4 UNK         0.4946 
     21 O          25.6054   -0.5805   -8.7869 O.2       4 UNK        -0.5353 
     22 CA         24.1113   -1.0484   -6.9782 C.3       4 UNK         0.0277 
     23 CB         23.3262   -2.3283   -7.3035 C.3       4 UNK        -0.1981 
     24 N          24.1823   -0.8749   -5.5248 N.am      4 UNK        -0.4209 
     25 C          24.7699    0.1546   -4.8993 C.2       3 UNK         0.4942 
     26 O          25.2697    1.1125   -5.4905 O.2       3 UNK        -0.5208 
     27 CA         24.9017    0.0675   -3.3668 C.3       3 UNK         0.0250 
     28 CB         23.8935   -0.8990   -2.7053 C.3       3 UNK        -0.1990 
     29 N          26.2719   -0.2756   -2.9625 N.am      3 UNK        -0.4232 
     30 C          27.0057   -1.3182   -3.3804 C.2       2 UNK         0.4993 
     31 O          26.6050   -2.1630   -4.1794 O.2       2 UNK        -0.5286 
     32 CA         28.4286   -1.4498   -2.8193 C.3       2 UNK         0.0209 
     33 CB         29.2716   -0.1741   -3.0032 C.3       2 UNK        -0.1931 
     34 N          28.4415   -1.9224   -1.4362 N.am      2 UNK        -0.4546 
     35 C          27.9718   -1.3232   -0.3361 C.2       1 UNK         0.5154 
     36 O          27.4920   -0.1871   -0.3222 O.2       1 UNK        -0.5181 
     37 C          28.5444   -0.2332   -7.4586 C.2       5 UNK         0.5014 
     38 O          29.4251    0.0266   -8.2812 O.2       5 UNK        -0.5248 
     39 N          28.0930    0.6624   -6.5643 N.am      6 UNK        -0.4434 
     40 CA         28.4843    2.0744   -6.5610 C.3       6 UNK         0.0363 
     41 CB         28.3063    2.6981   -5.1670 C.3       6 UNK        -0.1936 
     42 C          27.7124    2.8687   -7.6220 C.2       6 UNK         0.5081 
     43 O          28.3173    3.6935   -8.3041 O.2       6 UNK        -0.5248 
     44 N          26.4137    2.5764   -7.7900 N.am      7 UNK        -0.4718 
     45 CA         25.5641    3.1513   -8.8421 C.3       7 UNK         0.0273 
     46 CB         24.1084    2.7046   -8.6381 C.3       7 UNK        -0.1935 
     47 C          26.0501    2.8037  -10.2623 C.2       7 UNK         0.5018 
     48 O          26.0037    3.6587  -11.1468 O.2       7 UNK        -0.5186 
     49 N          26.5584    1.5757  -10.4362 N.am      8 UNK        -0.4240 
     50 CA         27.2372    1.0981  -11.6442 C.3       8 UNK         0.0235 
     51 CB         27.2846   -0.4392  -11.6059 C.3       8 UNK        -0.2000 
     52 C          28.6590    1.6669  -11.8348 C.2       8 UNK         0.4941 
     53 O          29.2539    1.4205  -12.8846 O.2       8 UNK        -0.5273 
     54 N          29.1890    2.3840  -10.8301 N.am      9 UNK        -0.4262 
     55 CA         30.5335    2.9705  -10.7557 C.3       9 UNK         0.0264 
     56 CB         30.7229    4.0633  -11.8297 C.3       9 UNK        -0.1955 
     57 C          31.6684    1.9265  -10.7535 C.2       9 UNK         0.5031 
     58 O          32.7857    2.2408  -11.1687 O.2       9 UNK        -0.5390 
     59 N          31.3766    0.7123  -10.2689 N.am      10 UNK        -0.4204 
     60 CA         32.3376   -0.3828  -10.1357 C.3       10 UNK         0.0237 
     61 CB         31.6087   -1.7192  -10.3578 C.3       10 UNK        -0.1985 
     62 C          33.0313   -0.3763   -8.7643 C.2       10 UNK         0.4970 
     63 O          34.1667   -0.8434   -8.6695 O.2       10 UNK        -0.4914 
     64 N          32.3389    0.1287   -7.7353 N.am      11 UNK        -0.4285 
     65 CA         32.7581    0.0720   -6.3259 C.3       11 UNK         0.1007 
     66 C          32.4468    1.3742   -5.5358 C.2       11 UNK         0.5703 
     67 N          32.2082    2.4996   -6.1992 N.am      11 UNK        -0.7361 
     68 O          32.4311    1.3744   -4.3079 O.2       11 UNK        -0.4986 
     69 C69        32.2133   -1.2191   -5.6500 C.3       12 UNK        -0.0947 
     70 S70        33.4809   -2.1408   -4.7118 S.3       12 UNK        -0.2240 
     71 C71        32.6100   -2.5699   -3.1591 C.3       12 UNK         0.0194 
     72 H72        24.2375   -2.3632    2.2572 H         1 UNK         0.0906 
     73 H73        24.6446   -3.3869    3.6353 H         1 UNK         0.0906 
     74 H74        24.6111   -1.6310    3.8189 H         1 UNK         0.0906 
     75 H75        25.9369   -2.1263    0.8074 H         1 UNK         0.3140 
     76 H76        28.5998   -1.4992    1.6574 H         1 UNK         0.1085 
     77 H77        29.7890   -3.3546    0.5567 H         1 UNK         0.0836 
     78 H78        28.8634   -3.9103    1.9058 H         1 UNK         0.0836 
     79 H79        29.0462   -6.6995   -1.0383 H         1 UNK         0.0731 
     80 H80        30.1539   -5.7503   -0.0928 H         1 UNK         0.0731 
     81 H81        31.3542   -3.8234   -1.1319 H         1 UNK         0.1312 
     82 H82        31.3866   -3.7153   -5.4200 H         1 UNK         0.1406 
     83 H83        28.5153   -6.1177   -3.3920 H         1 UNK         0.1631 
     84 H84        28.9803   -6.3855   -5.8396 H         1 UNK         0.0717 
     85 H85        30.1412   -5.3666   -6.6451 H         1 UNK         0.0717 
     86 H86        29.0117   -2.2797   -5.6894 H         1 UNK         0.0934 
     87 H87        29.7285   -2.7926   -7.1970 H         1 UNK         0.0934 
     88 H88        27.8691   -1.9679   -8.5011 H         1 UNK         0.0739 
     89 H89        26.3573   -1.9745   -6.0475 H         1 UNK         0.3093 
     90 H90        23.5585   -0.1979   -7.3799 H         1 UNK         0.0818 
     91 H91        22.3142   -2.2879   -6.9004 H         1 UNK         0.0819 
     92 H92        23.2379   -2.4671   -8.3821 H         1 UNK         0.0819 
     93 H93        23.8153   -3.2160   -6.8999 H         1 UNK         0.0819 
     94 H94        23.8442   -1.6396   -4.9586 H         1 UNK         0.3041 
     95 H95        24.7017    1.0699   -2.9854 H         1 UNK         0.0784 
     96 H96        22.8691   -0.6617   -2.9957 H         1 UNK         0.0793 
     97 H97        24.0826   -1.9414   -2.9646 H         1 UNK         0.0793 
     98 H98        23.9414   -0.8222   -1.6189 H         1 UNK         0.0793 
     99 H99        26.6844    0.3141   -2.2483 H         1 UNK         0.3024 
    100 H100       28.9109   -2.2417   -3.3919 H         1 UNK         0.1171 
    101 H101       30.2800   -0.3067   -2.6133 H         1 UNK         0.0786 
    102 H102       29.3695    0.0673   -4.0607 H         1 UNK         0.0786 
    103 H103       28.8396    0.6923   -2.5026 H         1 UNK         0.0786 
    104 H104       28.7304   -2.8876   -1.3274 H         1 UNK         0.2977 
    105 H105       27.3090    0.4138   -5.9750 H         1 UNK         0.3127 
    106 H106       29.5425    2.1463   -6.8168 H         1 UNK         0.0770 
    107 H107       27.3096    2.5316   -4.7602 H         1 UNK         0.0814 
    108 H108       28.4644    3.7770   -5.2018 H         1 UNK         0.0814 
    109 H109       29.0333    2.3027   -4.4602 H         1 UNK         0.0814 
    110 H110       25.9742    1.9298   -7.1410 H         1 UNK         0.2983 
    111 H111       25.6053    4.2377   -8.7372 H         1 UNK         0.0947 
    112 H112       23.4458    3.2134   -9.3394 H         1 UNK         0.0806 
    113 H113       23.7564    2.9348   -7.6322 H         1 UNK         0.0806 
    114 H114       23.9889    1.6340   -8.8008 H         1 UNK         0.0806 
    115 H115       26.4491    0.9013   -9.6825 H         1 UNK         0.3000 
    116 H116       26.6476    1.4033  -12.5111 H         1 UNK         0.0850 
    117 H117       27.7362   -0.8427  -12.5132 H         1 UNK         0.0810 
    118 H118       26.2844   -0.8655  -11.5265 H         1 UNK         0.0810 
    119 H119       27.8710   -0.8013  -10.7606 H         1 UNK         0.0810 
    120 H120       28.6112    2.5610  -10.0158 H         1 UNK         0.3040 
    121 H121       30.5886    3.4620   -9.7836 H         1 UNK         0.0766 
    122 H122       30.7591    3.6426  -12.8349 H         1 UNK         0.0812 
    123 H123       31.6544    4.6088  -11.6736 H         1 UNK         0.0812 
    124 H124       29.9137    4.7928  -11.7991 H         1 UNK         0.0812 
    125 H125       30.4513    0.5472   -9.8827 H         1 UNK         0.3205 
    126 H126       33.1098   -0.2882  -10.9022 H         1 UNK         0.0754 
    127 H127       32.3050   -2.5570  -10.3015 H         1 UNK         0.0769 
    128 H128       31.1386   -1.7540  -11.3408 H         1 UNK         0.0769 
    129 H129       30.8330   -1.8899   -9.6103 H         1 UNK         0.0769 
    130 H130       31.3879    0.4388   -7.8992 H         1 UNK         0.2981 
    131 H131       33.8487    0.0333   -6.3152 H         1 UNK         0.0541 
    132 H132       32.0216    3.3419   -5.6789 H         1 UNK         0.3459 
    133 H133       32.2842    2.5323   -7.2022 H         1 UNK         0.3459 
    134 H134       31.8500   -1.9000   -6.4188 H         1 UNK         0.0612 
    135 H135       31.3490   -1.0140   -5.0171 H         1 UNK         0.0612 
    136 H136       33.3589   -2.9464   -2.4610 H         1 UNK         0.0624 
    137 H137       32.2156   -1.6548   -2.7174 H         1 UNK         0.0624 
@<TRIPOS>BOND
     1    1    2 1    
     2    1   72 1    
     3    1   73 1    
     4    1   74 1    
     5    2    3 2    
     6    2    4 am   BACKBONE|DICT|INTERRES
     7    4    5 1    
     8    4   75 1    
     9    5    6 1    
    10    5   35 1    
    11    5   76 1    
    12    6    7 1    
    13    6   77 1    
    14    6   78 1    
    15    7    8 1    
    16    8    9 1    
    17    8   79 1    
    18    8   80 1    
    19    9   10 ar   
    20    9   14 ar   
    21   10   11 ar   
    22   10   81 1    
    23   11   12 ar   
    24   11   71 1    
    25   12   13 ar   
    26   12   82 1    
    27   13   14 ar   
    28   13   15 1    
    29   14   83 1    
    30   15   16 1    
    31   15   84 1    
    32   15   85 1    
    33   16   17 1    
    34   17   18 1    
    35   17   86 1    
    36   17   87 1    
    37   18   19 1    
    38   18   37 1    
    39   18   88 1    
    40   19   20 am   BACKBONE|DICT|INTERRES
    41   19   89 1    
    42   20   21 2    
    43   20   22 1    
    44   22   23 1    
    45   22   24 1    
    46   22   90 1    
    47   23   91 1    
    48   23   92 1    
    49   23   93 1    
    50   24   25 am   BACKBONE|DICT|INTERRES
    51   24   94 1    
    52   25   26 2    
    53   25   27 1    
    54   27   28 1    
    55   27   29 1    
    56   27   95 1    
    57   28   96 1    
    58   28   97 1    
    59   28   98 1    
    60   29   30 am   BACKBONE|DICT|INTERRES
    61   29   99 1    
    62   30   31 2    
    63   30   32 1    
    64   32   33 1    
    65   32   34 1    
    66   32  100 1    
    67   33  101 1    
    68   33  102 1    
    69   33  103 1    
    70   34   35 am   BACKBONE|DICT|INTERRES
    71   34  104 1    
    72   35   36 2    
    73   37   38 2    
    74   37   39 am   BACKBONE|DICT|INTERRES
    75   39   40 1    
    76   39  105 1    
    77   40   41 1    
    78   40   42 1    
    79   40  106 1    
    80   41  107 1    
    81   41  108 1    
    82   41  109 1    
    83   42   43 2    
    84   42   44 am   BACKBONE|DICT|INTERRES
    85   44   45 1    
    86   44  110 1    
    87   45   46 1    
    88   45   47 1    
    89   45  111 1    
    90   46  112 1    
    91   46  113 1    
    92   46  114 1    
    93   47   48 2    
    94   47   49 am   BACKBONE|DICT|INTERRES
    95   49   50 1    
    96   49  115 1    
    97   50   51 1    
    98   50   52 1    
    99   50  116 1    
   100   51  117 1    
   101   51  118 1    
   102   51  119 1    
   103   52   53 2    
   104   52   54 am   BACKBONE|DICT|INTERRES
   105   54   55 1    
   106   54  120 1    
   107   55   56 1    
   108   55   57 1    
   109   55  121 1    
   110   56  122 1    
   111   56  123 1    
   112   56  124 1    
   113   57   58 2    
   114   57   59 am   BACKBONE|DICT|INTERRES
   115   59   60 1    
   116   59  125 1    
   117   60   61 1    
   118   60   62 1    
   119   60  126 1    
   120   61  127 1    
   121   61  128 1    
   122   61  129 1    
   123   62   63 2    
   124   62   64 am   BACKBONE|DICT|INTERRES
   125   64   65 1    
   126   64  130 1    
   127   65   66 1    
   128   65   69 1    
   129   65  131 1    
   130   66   67 am   BACKBONE|DICT|INTERRES
   131   66   68 2    
   132   67  132 1    
   133   67  133 1    
   134   69   70 1    
   135   69  134 1    
   136   69  135 1    
   137   70   71 1    
   138   71  136 1    
   139   71  137 1    
@<TRIPOS>SUBSTRUCTURE
     1 UNK         1 GROUP             0       ****    0 ROOT    
