@<TRIPOS>MOLECULE
3R137
137   139    1
SMALL
USER_CHARGES


@<TRIPOS>ATOM
      1 CA         28.7324    1.0992   -1.1405 C.3       0 UNK        -0.2020 
      2 C          28.1816   -0.2563   -1.5544 C.2       0 UNK         0.4855 
      3 O          27.4619   -0.3446   -2.5509 O.2       0 UNK        -0.5197 
      4 N          28.5140   -1.3100   -0.7950 N.am      1 UNK        -0.4892 
      5 CA         28.0973   -2.6987   -1.0231 C.3       1 UNK         0.0835 
      6 C6         28.6954   -3.6779    0.0202 C.3       12 UNK        -0.0855 
      7 S7         30.5126   -3.5914    0.1714 S.3       12 UNK        -0.2931 
      8 C8         31.0520   -5.0380   -0.7952 C.3       12 UNK         0.0378 
      9 C9         31.1254   -4.7121   -2.2782 C.ar      12 UNK        -0.0802 
     10 C10        32.2456   -4.0458   -2.7846 C.ar      12 UNK        -0.0944 
     11 C11        32.3224   -3.7165   -4.1399 C.ar      12 UNK        -0.0787 
     12 C12        31.2766   -4.0725   -4.9931 C.ar      12 UNK        -0.0862 
     13 C13        30.1449   -4.7262   -4.4977 C.ar      12 UNK        -0.0733 
     14 C14        30.0795   -5.0582   -3.1404 C.ar      12 UNK        -0.0832 
     15 C15        28.9838   -5.0443   -5.4293 C.3       12 UNK         0.0240 
     16 S16        27.5684   -3.9313   -5.1492 S.3       12 UNK        -0.2522 
     17 C17        28.2779   -2.2848   -5.5006 C.3       12 UNK        -0.0967 
     18 CA         27.5863   -1.5372   -6.6664 C.3       5 UNK         0.0660 
     19 N          26.1323   -1.4710   -6.4980 N.am      5 UNK        -0.4015 
     20 C          25.2601   -0.9476   -7.3721 C.2       4 UNK         0.4946 
     21 O          25.5742   -0.5035   -8.4741 O.2       4 UNK        -0.5353 
     22 CA         23.7936   -0.8515   -6.9136 C.3       4 UNK         0.0277 
     23 CB         23.0272   -2.1286   -7.2907 C.3       4 UNK        -0.1981 
     24 N          23.6663   -0.6138   -5.4741 N.am      4 UNK        -0.4209 
     25 C          24.1804    0.4284   -4.8077 C.2       3 UNK         0.4942 
     26 O          24.7159    1.3903   -5.3590 O.2       3 UNK        -0.5208 
     27 CA         24.1910    0.3372   -3.2731 C.3       3 UNK         0.0250 
     28 CB         22.8728    0.8493   -2.6613 C.3       3 UNK        -0.1990 
     29 N          24.5658   -0.9985   -2.7761 N.am      3 UNK        -0.4232 
     30 C          23.8640   -2.1441   -2.8193 C.2       2 UNK         0.4993 
     31 O          22.7279   -2.2163   -3.2893 O.2       2 UNK        -0.5286 
     32 CA         24.5476   -3.4416   -2.3386 C.3       2 UNK         0.0209 
     33 CB         24.2990   -4.5990   -3.3242 C.3       2 UNK        -0.1931 
     34 N          25.9934   -3.3021   -2.1387 N.am      2 UNK        -0.4546 
     35 C          26.5601   -2.8197   -1.0267 C.2       1 UNK         0.5154 
     36 O          25.9199   -2.4581   -0.0367 O.2       1 UNK        -0.5181 
     37 C          28.2077   -0.1339   -6.8197 C.2       5 UNK         0.5014 
     38 O          29.0236    0.0799   -7.7182 O.2       5 UNK        -0.5248 
     39 N          27.7974    0.7975   -5.9460 N.am      6 UNK        -0.4434 
     40 CA         28.2169    2.1980   -5.9717 C.3       6 UNK         0.0363 
     41 CB         27.8377    2.8801   -4.6482 C.3       6 UNK        -0.1936 
     42 C          27.6261    2.9557   -7.1697 C.2       6 UNK         0.5081 
     43 O          28.3425    3.7368   -7.7938 O.2       6 UNK        -0.5248 
     44 N          26.3539    2.6859   -7.5000 N.am      7 UNK        -0.4718 
     45 CA         25.6625    3.2479   -8.6669 C.3       7 UNK         0.0273 
     46 CB         24.1735    2.8723   -8.6202 C.3       7 UNK        -0.1935 
     47 C          26.2933    2.8178  -10.0043 C.2       7 UNK         0.5018 
     48 O          26.4265    3.6464  -10.9053 O.2       7 UNK        -0.5186 
     49 N          26.7064    1.5458  -10.0933 N.am      8 UNK        -0.4240 
     50 CA         27.4628    0.9808  -11.2149 C.3       8 UNK         0.0235 
     51 CB         27.3591   -0.5529  -11.1611 C.3       8 UNK        -0.2000 
     52 C          28.9432    1.4086  -11.2410 C.2       8 UNK         0.4941 
     53 O          29.6100    1.1651  -12.2476 O.2       8 UNK        -0.5273 
     54 N          29.4309    2.0118  -10.1457 N.am      9 UNK        -0.4262 
     55 CA         30.8116    2.4320   -9.8892 C.3       9 UNK         0.0264 
     56 CB         31.2271    3.5775  -10.8368 C.3       9 UNK        -0.1955 
     57 C          31.7987    1.2492   -9.8907 C.2       9 UNK         0.5031 
     58 O          32.8819    1.3493  -10.4713 O.2       9 UNK        -0.5390 
     59 N          31.4098    0.1475   -9.2311 N.am      10 UNK        -0.4204 
     60 CA         32.2266   -1.0611   -9.0720 C.3       10 UNK         0.0237 
     61 CB         31.3492   -2.1956   -8.5194 C.3       10 UNK        -0.1985 
     62 C          33.4576   -0.8455   -8.1719 C.2       10 UNK         0.4970 
     63 O          34.4729   -1.5150   -8.3653 O.2       10 UNK        -0.4914 
     64 N          33.3448    0.0885   -7.2239 N.am      11 UNK        -0.4285 
     65 CA         34.3924    0.5448   -6.3074 C.3       11 UNK         0.1007 
     66 C          34.0076    1.9178   -5.6928 C.2       11 UNK         0.5703 
     67 N          34.9300    2.5707   -4.9987 N.am      11 UNK        -0.7361 
     68 O          32.8862    2.4029   -5.8450 O.2       11 UNK        -0.4986 
     69 C69        34.7966   -0.5187   -5.2447 C.3       12 UNK        -0.0947 
     70 S70        33.3911   -1.1841   -4.2873 S.3       12 UNK        -0.2240 
     71 C71        33.5213   -2.9551   -4.6789 C.3       12 UNK         0.0194 
     72 H72        29.5044    1.4178   -1.8402 H         1 UNK         0.0906 
     73 H73        27.9374    1.8445   -1.1439 H         1 UNK         0.0906 
     74 H74        29.1673    1.0736   -0.1414 H         1 UNK         0.0906 
     75 H75        29.1095   -1.1735    0.0096 H         1 UNK         0.3140 
     76 H76        28.4723   -2.9786   -2.0095 H         1 UNK         0.1085 
     77 H77        28.2841   -3.4708    1.0106 H         1 UNK         0.0836 
     78 H78        28.4022   -4.7038   -0.2106 H         1 UNK         0.0836 
     79 H79        32.0393   -5.3426   -0.4443 H         1 UNK         0.0731 
     80 H80        30.3938   -5.8884   -0.6112 H         1 UNK         0.0731 
     81 H81        33.0495   -3.7627   -2.1186 H         1 UNK         0.1312 
     82 H82        31.3329   -3.8167   -6.0413 H         1 UNK         0.1406 
     83 H83        29.2053   -5.5650   -2.7548 H         1 UNK         0.1631 
     84 H84        28.6620   -6.0745   -5.2709 H         1 UNK         0.0717 
     85 H85        29.2910   -4.9762   -6.4743 H         1 UNK         0.0717 
     86 H86        28.2209   -1.7078   -4.5774 H         1 UNK         0.0934 
     87 H87        29.3409   -2.3772   -5.7172 H         1 UNK         0.0934 
     88 H88        27.7802   -2.0855   -7.5907 H         1 UNK         0.0739 
     89 H89        25.7739   -1.8361   -5.6294 H         1 UNK         0.3093 
     90 H90        23.3342   -0.0074   -7.4300 H         1 UNK         0.0818 
     91 H91        21.9693   -2.0442   -7.0413 H         1 UNK         0.0819 
     92 H92        23.0920   -2.3194   -8.3630 H         1 UNK         0.0819 
     93 H93        23.4236   -3.0060   -6.7778 H         1 UNK         0.0819 
     94 H94        23.2144   -1.3351   -4.9172 H         1 UNK         0.3041 
     95 H95        24.9851    1.0032   -2.9312 H         1 UNK         0.0784 
     96 H96        22.6956    1.8879   -2.9436 H         1 UNK         0.0793 
     97 H97        22.0096    0.2745   -2.9972 H         1 UNK         0.0793 
     98 H98        22.9002    0.8093   -1.5724 H         1 UNK         0.0793 
     99 H99        25.5209   -1.0504   -2.4352 H         1 UNK         0.3024 
    100 H100       24.0809   -3.7062   -1.3867 H         1 UNK         0.1171 
    101 H101       23.2342   -4.8202   -3.4106 H         1 UNK         0.0786 
    102 H102       24.7888   -5.5153   -2.9944 H         1 UNK         0.0786 
    103 H103       24.6630   -4.3648   -4.3250 H         1 UNK         0.0786 
    104 H104       26.5794   -3.5544   -2.9244 H         1 UNK         0.2977 
    105 H105       27.1135    0.5462   -5.2460 H         1 UNK         0.3127 
    106 H106       29.3052    2.2224   -6.0654 H         1 UNK         0.0770 
    107 H107       26.7592    2.8919   -4.4887 H         1 UNK         0.0814 
    108 H108       28.1805    3.9154   -4.6328 H         1 UNK         0.0814 
    109 H109       28.2958    2.3746   -3.7991 H         1 UNK         0.0814 
    110 H110       25.8178    2.0689   -6.8963 H         1 UNK         0.2983 
    111 H111       25.7409    4.3353   -8.6005 H         1 UNK         0.0947 
    112 H112       23.6228    3.3715   -9.4184 H         1 UNK         0.0806 
    113 H113       23.7162    3.1667   -7.6752 H         1 UNK         0.0806 
    114 H114       24.0251    1.8005   -8.7469 H         1 UNK         0.0806 
    115 H115       26.4730    0.9035   -9.3381 H         1 UNK         0.3000 
    116 H116       27.0071    1.3245  -12.1458 H         1 UNK         0.0850 
    117 H117       27.8782   -1.0129  -12.0030 H         1 UNK         0.0810 
    118 H118       26.3206   -0.8820  -11.2020 H         1 UNK         0.0810 
    119 H119       27.8004   -0.9521  -10.2466 H         1 UNK         0.0810 
    120 H120       28.7912    2.1629   -9.3760 H         1 UNK         0.3040 
    121 H121       30.8215    2.8295   -8.8730 H         1 UNK         0.0766 
    122 H122       31.2908    3.2450  -11.8733 H         1 UNK         0.0812 
    123 H123       30.5181    4.4041  -10.7917 H         1 UNK         0.0812 
    124 H124       32.2052    3.9746  -10.5628 H         1 UNK         0.0812 
    125 H125       30.5005    0.1498   -8.7669 H         1 UNK         0.3205 
    126 H126       32.5869   -1.3555  -10.0599 H         1 UNK         0.0754 
    127 H127       31.9173   -3.1229   -8.4344 H         1 UNK         0.0769 
    128 H128       30.4979   -2.3936   -9.1712 H         1 UNK         0.0769 
    129 H129       30.9634   -1.9530   -7.5292 H         1 UNK         0.0769 
    130 H130       32.4806    0.6070   -7.1406 H         1 UNK         0.2981 
    131 H131       35.2693    0.7464   -6.9252 H         1 UNK         0.0541 
    132 H132       35.8544    2.1904   -4.8693 H         1 UNK         0.3459 
    133 H133       34.6953    3.4642   -4.5956 H         1 UNK         0.3459 
    134 H134       35.5247   -0.1107   -4.5422 H         1 UNK         0.0612 
    135 H135       35.3141   -1.3409   -5.7401 H         1 UNK         0.0612 
    136 H136       33.5972   -3.0825   -5.7602 H         1 UNK         0.0624 
    137 H137       34.4413   -3.3555   -4.2504 H         1 UNK         0.0624 
@<TRIPOS>BOND
     1    1    2 1    
     2    1   72 1    
     3    1   73 1    
     4    1   74 1    
     5    2    3 2    
     6    2    4 am   BACKBONE|DICT|INTERRES
     7    4    5 1    
     8    4   75 1    
     9    5    6 1    
    10    5   35 1    
    11    5   76 1    
    12    6    7 1    
    13    6   77 1    
    14    6   78 1    
    15    7    8 1    
    16    8    9 1    
    17    8   79 1    
    18    8   80 1    
    19    9   10 ar   
    20    9   14 ar   
    21   10   11 ar   
    22   10   81 1    
    23   11   12 ar   
    24   11   71 1    
    25   12   13 ar   
    26   12   82 1    
    27   13   14 ar   
    28   13   15 1    
    29   14   83 1    
    30   15   16 1    
    31   15   84 1    
    32   15   85 1    
    33   16   17 1    
    34   17   18 1    
    35   17   86 1    
    36   17   87 1    
    37   18   19 1    
    38   18   37 1    
    39   18   88 1    
    40   19   20 am   BACKBONE|DICT|INTERRES
    41   19   89 1    
    42   20   21 2    
    43   20   22 1    
    44   22   23 1    
    45   22   24 1    
    46   22   90 1    
    47   23   91 1    
    48   23   92 1    
    49   23   93 1    
    50   24   25 am   BACKBONE|DICT|INTERRES
    51   24   94 1    
    52   25   26 2    
    53   25   27 1    
    54   27   28 1    
    55   27   29 1    
    56   27   95 1    
    57   28   96 1    
    58   28   97 1    
    59   28   98 1    
    60   29   30 am   BACKBONE|DICT|INTERRES
    61   29   99 1    
    62   30   31 2    
    63   30   32 1    
    64   32   33 1    
    65   32   34 1    
    66   32  100 1    
    67   33  101 1    
    68   33  102 1    
    69   33  103 1    
    70   34   35 am   BACKBONE|DICT|INTERRES
    71   34  104 1    
    72   35   36 2    
    73   37   38 2    
    74   37   39 am   BACKBONE|DICT|INTERRES
    75   39   40 1    
    76   39  105 1    
    77   40   41 1    
    78   40   42 1    
    79   40  106 1    
    80   41  107 1    
    81   41  108 1    
    82   41  109 1    
    83   42   43 2    
    84   42   44 am   BACKBONE|DICT|INTERRES
    85   44   45 1    
    86   44  110 1    
    87   45   46 1    
    88   45   47 1    
    89   45  111 1    
    90   46  112 1    
    91   46  113 1    
    92   46  114 1    
    93   47   48 2    
    94   47   49 am   BACKBONE|DICT|INTERRES
    95   49   50 1    
    96   49  115 1    
    97   50   51 1    
    98   50   52 1    
    99   50  116 1    
   100   51  117 1    
   101   51  118 1    
   102   51  119 1    
   103   52   53 2    
   104   52   54 am   BACKBONE|DICT|INTERRES
   105   54   55 1    
   106   54  120 1    
   107   55   56 1    
   108   55   57 1    
   109   55  121 1    
   110   56  122 1    
   111   56  123 1    
   112   56  124 1    
   113   57   58 2    
   114   57   59 am   BACKBONE|DICT|INTERRES
   115   59   60 1    
   116   59  125 1    
   117   60   61 1    
   118   60   62 1    
   119   60  126 1    
   120   61  127 1    
   121   61  128 1    
   122   61  129 1    
   123   62   63 2    
   124   62   64 am   BACKBONE|DICT|INTERRES
   125   64   65 1    
   126   64  130 1    
   127   65   66 1    
   128   65   69 1    
   129   65  131 1    
   130   66   67 am   BACKBONE|DICT|INTERRES
   131   66   68 2    
   132   67  132 1    
   133   67  133 1    
   134   69   70 1    
   135   69  134 1    
   136   69  135 1    
   137   70   71 1    
   138   71  136 1    
   139   71  137 1    
@<TRIPOS>SUBSTRUCTURE
     1 UNK         1 GROUP             0       ****    0 ROOT    
