@<TRIPOS>MOLECULE
3R137
137   139    1
SMALL
USER_CHARGES


@<TRIPOS>ATOM
      1 CA         26.5093   -7.3944   -2.7761 C.3       0 UNK        -0.2020 
      2 C          26.6220   -6.3650   -1.6613 C.2       0 UNK         0.4855 
      3 O          26.3936   -6.7006   -0.4984 O.2       0 UNK        -0.5197 
      4 N          26.9685   -5.1221   -2.0110 N.am      1 UNK        -0.4892 
      5 CA         27.0815   -3.9788   -1.0985 C.3       1 UNK         0.0835 
      6 C6         28.5329   -3.4254   -1.0275 C.3       12 UNK        -0.0855 
      7 S7         29.7226   -4.6845   -0.4366 S.3       12 UNK        -0.2931 
      8 C8         31.3198   -4.0937   -1.1083 C.3       12 UNK         0.0378 
      9 C9         31.3691   -3.9138   -2.6264 C.ar      12 UNK        -0.0802 
     10 C10        32.2371   -2.9582   -3.1669 C.ar      12 UNK        -0.0944 
     11 C11        32.2696   -2.7177   -4.5439 C.ar      12 UNK        -0.0787 
     12 C12        31.4181   -3.4369   -5.3852 C.ar      12 UNK        -0.0862 
     13 C13        30.5370   -4.3861   -4.8599 C.ar      12 UNK        -0.0733 
     14 C14        30.5501   -4.6535   -3.4889 C.ar      12 UNK        -0.0832 
     15 C15        29.4826   -5.0249   -5.7540 C.3       12 UNK         0.0240 
     16 S16        27.7801   -4.5640   -5.2576 S.3       12 UNK        -0.2522 
     17 C17        27.8938   -2.7617   -4.9743 C.3       12 UNK        -0.0967 
     18 CA         27.2974   -1.9356   -6.1368 C.3       5 UNK         0.0660 
     19 N          25.8971   -1.5793   -5.8944 N.am      5 UNK        -0.4015 
     20 C          25.0946   -0.9879   -6.7905 C.2       4 UNK         0.4946 
     21 O          25.4269   -0.7177   -7.9444 O.2       4 UNK        -0.5353 
     22 CA         23.7037   -0.5691   -6.2910 C.3       4 UNK         0.0277 
     23 CB         22.8001   -1.7946   -6.0764 C.3       4 UNK        -0.1981 
     24 N          23.7696    0.2222   -5.0601 N.am      4 UNK        -0.4209 
     25 C          24.3999    1.4005   -4.9405 C.2       3 UNK         0.4942 
     26 O          24.9680    1.9728   -5.8694 O.2       3 UNK        -0.5208 
     27 CA         24.4208    2.0481   -3.5463 C.3       3 UNK         0.0250 
     28 CB         23.2495    3.0325   -3.3988 C.3       3 UNK        -0.1990 
     29 N          24.3958    1.0943   -2.4341 N.am      3 UNK        -0.4232 
     30 C          25.3166    0.1518   -2.1840 C.2       2 UNK         0.4993 
     31 O          26.3011   -0.0508   -2.9030 O.2       2 UNK        -0.5286 
     32 CA         25.0893   -0.6649   -0.8923 C.3       2 UNK         0.0209 
     33 CB         23.6175   -1.1117   -0.7244 C.3       2 UNK        -0.1931 
     34 N          25.9890   -1.8164   -0.7383 N.am      2 UNK        -0.4546 
     35 C          26.0676   -2.8968   -1.5285 C.2       1 UNK         0.5154 
     36 O          25.3754   -3.0583   -2.5398 O.2       1 UNK        -0.5181 
     37 C          28.1610   -0.6900   -6.3947 C.2       5 UNK         0.5014 
     38 O          28.9482   -0.6961   -7.3421 O.2       5 UNK        -0.5248 
     39 N          27.9912    0.3465   -5.5579 N.am      6 UNK        -0.4434 
     40 CA         28.7279    1.6099   -5.6483 C.3       6 UNK         0.0363 
     41 CB         28.3165    2.5381   -4.4966 C.3       6 UNK        -0.1936 
     42 C          28.5571    2.3151   -7.0035 C.2       6 UNK         0.5081 
     43 O          29.5345    2.8500   -7.5267 O.2       6 UNK        -0.5248 
     44 N          27.3371    2.2732   -7.5550 N.am      7 UNK        -0.4718 
     45 CA         27.0196    2.7463   -8.8992 C.3       7 UNK         0.0273 
     46 CB         25.5000    2.9373   -9.0327 C.3       7 UNK        -0.1935 
     47 C          27.5510    1.8022   -9.9894 C.2       7 UNK         0.5018 
     48 O          28.2196    2.2729  -10.9095 O.2       7 UNK        -0.5186 
     49 N          27.2446    0.4996   -9.8785 N.am      8 UNK        -0.4240 
     50 CA         27.5594   -0.5181  -10.8887 C.3       8 UNK         0.0235 
     51 CB         26.8760   -1.8471  -10.5290 C.3       8 UNK        -0.2000 
     52 C          29.0628   -0.7364  -11.1156 C.2       8 UNK         0.4941 
     53 O          29.4922   -0.8081  -12.2679 O.2       8 UNK        -0.5273 
     54 N          29.8339   -0.8329  -10.0251 N.am      9 UNK        -0.4262 
     55 CA         31.2888   -1.0057  -10.0650 C.3       9 UNK         0.0264 
     56 CB         31.7263   -1.8192   -8.8375 C.3       9 UNK        -0.1955 
     57 C          32.0468    0.3315  -10.1236 C.2       9 UNK         0.5031 
     58 O          33.2658    0.3145  -10.2985 O.2       9 UNK        -0.5390 
     59 N          31.3305    1.4530   -9.9471 N.am      10 UNK        -0.4204 
     60 CA         31.8250    2.8337   -9.8687 C.3       10 UNK         0.0237 
     61 CB         32.4686    3.2705  -11.2023 C.3       10 UNK        -0.1985 
     62 C          32.7356    3.1055   -8.6514 C.2       10 UNK         0.4970 
     63 O          33.4590    4.1034   -8.6523 O.2       10 UNK        -0.4914 
     64 N          32.6816    2.2349   -7.6336 N.am      11 UNK        -0.4285 
     65 CA         33.4218    2.3689   -6.3716 C.3       11 UNK         0.1007 
     66 C          32.7710    3.3370   -5.3409 C.2       11 UNK         0.5703 
     67 N          31.5691    3.8523   -5.5737 N.am      11 UNK        -0.7361 
     68 O          33.3823    3.6479   -4.3213 O.2       11 UNK        -0.4986 
     69 C69        33.7884    0.9871   -5.7655 C.3       12 UNK        -0.0947 
     70 S70        32.3641   -0.0602   -5.3130 S.3       12 UNK        -0.2240 
     71 C71        33.2037   -1.6635   -5.1195 C.3       12 UNK         0.0194 
     72 H72        26.6633   -6.9521   -3.7598 H         1 UNK         0.0906 
     73 H73        27.2525   -8.1791   -2.6374 H         1 UNK         0.0906 
     74 H74        25.5214   -7.8540   -2.7646 H         1 UNK         0.0906 
     75 H75        27.0622   -4.8884   -2.9917 H         1 UNK         0.3140 
     76 H76        26.7871   -4.2801   -0.0907 H         1 UNK         0.1085 
     77 H77        28.8403   -3.0486   -2.0036 H         1 UNK         0.0836 
     78 H78        28.5972   -2.5766   -0.3450 H         1 UNK         0.0836 
     79 H79        31.5600   -3.1496   -0.6166 H         1 UNK         0.0731 
     80 H80        32.0995   -4.7993   -0.8188 H         1 UNK         0.0731 
     81 H81        32.8778   -2.3834   -2.5118 H         1 UNK         0.1312 
     82 H82        31.4080   -3.2218   -6.4431 H         1 UNK         0.1406 
     83 H83        29.8607   -5.3854   -3.0914 H         1 UNK         0.1631 
     84 H84        29.5847   -6.1103   -5.7180 H         1 UNK         0.0717 
     85 H85        29.6310   -4.7339   -6.7951 H         1 UNK         0.0717 
     86 H86        27.3851   -2.5237   -4.0429 H         1 UNK         0.0934 
     87 H87        28.9256   -2.4811   -4.7703 H         1 UNK         0.0934 
     88 H88        27.3313   -2.5287   -7.0533 H         1 UNK         0.0739 
     89 H89        25.5484   -1.7392   -4.9590 H         1 UNK         0.3093 
     90 H90        23.2519    0.0576   -7.0632 H         1 UNK         0.0818 
     91 H91        21.7825   -1.4964   -5.8233 H         1 UNK         0.0819 
     92 H92        22.7418   -2.3985   -6.9831 H         1 UNK         0.0819 
     93 H93        23.1685   -2.4400   -5.2778 H         1 UNK         0.0819 
     94 H94        23.3307   -0.1681   -4.2393 H         1 UNK         0.3041 
     95 H95        25.3481    2.6154   -3.4611 H         1 UNK         0.0784 
     96 H96        23.2588    3.7722   -4.2009 H         1 UNK         0.0793 
     97 H97        22.2854    2.5237   -3.4365 H         1 UNK         0.0793 
     98 H98        23.3054    3.5799   -2.4576 H         1 UNK         0.0793 
     99 H99        23.6283    1.1918   -1.7851 H         1 UNK         0.3024 
    100 H100       25.3285    0.0099   -0.0684 H         1 UNK         0.1171 
    101 H101       23.2630   -1.6773   -1.5871 H         1 UNK         0.0786 
    102 H102       23.4955   -1.7427    0.1562 H         1 UNK         0.0786 
    103 H103       22.9479   -0.2615   -0.5925 H         1 UNK         0.0786 
    104 H104       26.6169   -1.7612    0.0515 H         1 UNK         0.2977 
    105 H105       27.3350    0.2530   -4.7897 H         1 UNK         0.3127 
    106 H106       29.7862    1.3726   -5.5314 H         1 UNK         0.0770 
    107 H107       27.2903    2.8837   -4.6103 H         1 UNK         0.0814 
    108 H108       28.9504    3.4243   -4.4665 H         1 UNK         0.0814 
    109 H109       28.4043    2.0424   -3.5296 H         1 UNK         0.0814 
    110 H110       26.5719    1.8736   -7.0183 H         1 UNK         0.2983 
    111 H111       27.4961    3.7192   -9.0406 H         1 UNK         0.0947 
    112 H112       25.2354    3.2916  -10.0298 H         1 UNK         0.0806 
    113 H113       25.1313    3.6728   -8.3175 H         1 UNK         0.0806 
    114 H114       24.9574    2.0069   -8.8591 H         1 UNK         0.0806 
    115 H115       26.6830    0.1898   -9.0882 H         1 UNK         0.3000 
    116 H116       27.1376   -0.1721  -11.8348 H         1 UNK         0.0850 
    117 H117       27.0927   -2.6145  -11.2734 H         1 UNK         0.0810 
    118 H118       25.7924   -1.7361  -10.4861 H         1 UNK         0.0810 
    119 H119       27.2121   -2.2241   -9.5625 H         1 UNK         0.0810 
    120 H120       29.4070   -0.7696   -9.0998 H         1 UNK         0.3040 
    121 H121       31.5639   -1.5732  -10.9567 H         1 UNK         0.0766 
    122 H122       31.4972   -1.2955   -7.9098 H         1 UNK         0.0812 
    123 H123       32.8010   -2.0059   -8.8499 H         1 UNK         0.0812 
    124 H124       31.2283   -2.7883   -8.8109 H         1 UNK         0.0812 
    125 H125       30.3324    1.3502   -9.8192 H         1 UNK         0.3205 
    126 H126       30.9405    3.4547   -9.7210 H         1 UNK         0.0754 
    127 H127       32.6832    4.3398  -11.2022 H         1 UNK         0.0769 
    128 H128       31.8040    3.0761  -12.0443 H         1 UNK         0.0769 
    129 H129       33.4092    2.7518  -11.3891 H         1 UNK         0.0769 
    130 H130       32.0305    1.4664   -7.6856 H         1 UNK         0.2981 
    131 H131       34.3761    2.8396   -6.6155 H         1 UNK         0.0541 
    132 H132       31.0407    3.5871   -6.3972 H         1 UNK         0.3459 
    133 H133       31.1768    4.4963   -4.9068 H         1 UNK         0.3459 
    134 H134       34.4154    1.1140   -4.8811 H         1 UNK         0.0612 
    135 H135       34.3998    0.4373   -6.4829 H         1 UNK         0.0612 
    136 H136       33.5839   -1.9904   -6.0885 H         1 UNK         0.0624 
    137 H137       34.0726   -1.5399   -4.4711 H         1 UNK         0.0624 
@<TRIPOS>BOND
     1    1    2 1    
     2    1   72 1    
     3    1   73 1    
     4    1   74 1    
     5    2    3 2    
     6    2    4 am   BACKBONE|DICT|INTERRES
     7    4    5 1    
     8    4   75 1    
     9    5    6 1    
    10    5   35 1    
    11    5   76 1    
    12    6    7 1    
    13    6   77 1    
    14    6   78 1    
    15    7    8 1    
    16    8    9 1    
    17    8   79 1    
    18    8   80 1    
    19    9   10 ar   
    20    9   14 ar   
    21   10   11 ar   
    22   10   81 1    
    23   11   12 ar   
    24   11   71 1    
    25   12   13 ar   
    26   12   82 1    
    27   13   14 ar   
    28   13   15 1    
    29   14   83 1    
    30   15   16 1    
    31   15   84 1    
    32   15   85 1    
    33   16   17 1    
    34   17   18 1    
    35   17   86 1    
    36   17   87 1    
    37   18   19 1    
    38   18   37 1    
    39   18   88 1    
    40   19   20 am   BACKBONE|DICT|INTERRES
    41   19   89 1    
    42   20   21 2    
    43   20   22 1    
    44   22   23 1    
    45   22   24 1    
    46   22   90 1    
    47   23   91 1    
    48   23   92 1    
    49   23   93 1    
    50   24   25 am   BACKBONE|DICT|INTERRES
    51   24   94 1    
    52   25   26 2    
    53   25   27 1    
    54   27   28 1    
    55   27   29 1    
    56   27   95 1    
    57   28   96 1    
    58   28   97 1    
    59   28   98 1    
    60   29   30 am   BACKBONE|DICT|INTERRES
    61   29   99 1    
    62   30   31 2    
    63   30   32 1    
    64   32   33 1    
    65   32   34 1    
    66   32  100 1    
    67   33  101 1    
    68   33  102 1    
    69   33  103 1    
    70   34   35 am   BACKBONE|DICT|INTERRES
    71   34  104 1    
    72   35   36 2    
    73   37   38 2    
    74   37   39 am   BACKBONE|DICT|INTERRES
    75   39   40 1    
    76   39  105 1    
    77   40   41 1    
    78   40   42 1    
    79   40  106 1    
    80   41  107 1    
    81   41  108 1    
    82   41  109 1    
    83   42   43 2    
    84   42   44 am   BACKBONE|DICT|INTERRES
    85   44   45 1    
    86   44  110 1    
    87   45   46 1    
    88   45   47 1    
    89   45  111 1    
    90   46  112 1    
    91   46  113 1    
    92   46  114 1    
    93   47   48 2    
    94   47   49 am   BACKBONE|DICT|INTERRES
    95   49   50 1    
    96   49  115 1    
    97   50   51 1    
    98   50   52 1    
    99   50  116 1    
   100   51  117 1    
   101   51  118 1    
   102   51  119 1    
   103   52   53 2    
   104   52   54 am   BACKBONE|DICT|INTERRES
   105   54   55 1    
   106   54  120 1    
   107   55   56 1    
   108   55   57 1    
   109   55  121 1    
   110   56  122 1    
   111   56  123 1    
   112   56  124 1    
   113   57   58 2    
   114   57   59 am   BACKBONE|DICT|INTERRES
   115   59   60 1    
   116   59  125 1    
   117   60   61 1    
   118   60   62 1    
   119   60  126 1    
   120   61  127 1    
   121   61  128 1    
   122   61  129 1    
   123   62   63 2    
   124   62   64 am   BACKBONE|DICT|INTERRES
   125   64   65 1    
   126   64  130 1    
   127   65   66 1    
   128   65   69 1    
   129   65  131 1    
   130   66   67 am   BACKBONE|DICT|INTERRES
   131   66   68 2    
   132   67  132 1    
   133   67  133 1    
   134   69   70 1    
   135   69  134 1    
   136   69  135 1    
   137   70   71 1    
   138   71  136 1    
   139   71  137 1    
@<TRIPOS>SUBSTRUCTURE
     1 UNK         1 GROUP             0       ****    0 ROOT    
