@<TRIPOS>MOLECULE
3R137
137   139    1
SMALL
USER_CHARGES


@<TRIPOS>ATOM
      1 CA         25.7366   -5.2674   -3.5648 C.3       0 UNK        -0.2020 
      2 C          25.0829   -5.3970   -2.1924 C.2       0 UNK         0.4855 
      3 O          24.0248   -6.0143   -2.0953 O.2       0 UNK        -0.5197 
      4 N          25.6504   -4.8624   -1.1004 N.am      1 UNK        -0.4892 
      5 CA         26.8512   -4.0246   -0.9774 C.3       1 UNK         0.0835 
      6 C6         28.1461   -4.6718   -1.5487 C.3       12 UNK        -0.0855 
      7 S7         29.6047   -4.2379   -0.5444 S.3       12 UNK        -0.2931 
      8 C8         30.9495   -4.3289   -1.7740 C.3       12 UNK         0.0378 
      9 C9         30.9509   -3.1818   -2.7810 C.ar      12 UNK        -0.0802 
     10 C10        31.2193   -3.4426   -4.1273 C.ar      12 UNK        -0.0944 
     11 C11        31.2904   -2.4002   -5.0569 C.ar      12 UNK        -0.0787 
     12 C12        31.0506   -1.0863   -4.6396 C.ar      12 UNK        -0.0862 
     13 C13        30.7749   -0.8099   -3.2968 C.ar      12 UNK        -0.0733 
     14 C14        30.7436   -1.8600   -2.3732 C.ar      12 UNK        -0.0832 
     15 C15        30.5393    0.6199   -2.8271 C.3       12 UNK         0.0240 
     16 S16        28.8892    0.8067   -2.0785 S.3       12 UNK        -0.2522 
     17 C17        28.0703    2.0442   -3.1388 C.3       12 UNK        -0.0967 
     18 CA         27.9075    1.6531   -4.6322 C.3       5 UNK         0.0660 
     19 N          27.4766    0.2693   -4.8410 N.am      5 UNK        -0.4015 
     20 C          27.4515   -0.3463   -6.0327 C.2       4 UNK         0.4946 
     21 O          27.8781    0.1533   -7.0756 O.2       4 UNK        -0.5353 
     22 CA         26.7920   -1.7320   -6.0806 C.3       4 UNK         0.0277 
     23 CB         27.8114   -2.8404   -5.7813 C.3       4 UNK        -0.1981 
     24 N          25.6631   -1.8250   -5.1524 N.am      4 UNK        -0.4209 
     25 C          24.4655   -1.2627   -5.3760 C.2       3 UNK         0.4942 
     26 O          24.1867   -0.6413   -6.3998 O.2       3 UNK        -0.5208 
     27 CA         23.4089   -1.3741   -4.2624 C.3       3 UNK         0.0250 
     28 CB         22.5886   -2.6632   -4.4263 C.3       3 UNK        -0.1990 
     29 N          23.9767   -1.3255   -2.9141 N.am      3 UNK        -0.4232 
     30 C          24.6583   -0.2882   -2.4080 C.2       2 UNK         0.4993 
     31 O          24.8325    0.7730   -3.0061 O.2       2 UNK        -0.5286 
     32 CA         25.3042   -0.4888   -1.0270 C.3       2 UNK         0.0209 
     33 CB         24.3638    0.0090    0.0815 C.3       2 UNK        -0.1931 
     34 N          25.7083   -1.8733   -0.7434 N.am      2 UNK        -0.4546 
     35 C          26.5675   -2.5947   -1.4807 C.2       1 UNK         0.5154 
     36 O          27.0453   -2.1961   -2.5438 O.2       1 UNK        -0.5181 
     37 C          26.9519    2.6356   -5.3388 C.2       5 UNK         0.5014 
     38 O          27.4159    3.5187   -6.0596 O.2       5 UNK        -0.5248 
     39 N          25.6374    2.4405   -5.1468 N.am      6 UNK        -0.4434 
     40 CA         24.5634    3.2207   -5.7700 C.3       6 UNK         0.0363 
     41 CB         23.2115    2.8058   -5.1688 C.3       6 UNK        -0.1936 
     42 C          24.5329    3.0996   -7.3031 C.2       6 UNK         0.5081 
     43 O          24.2959    4.0982   -7.9830 O.2       6 UNK        -0.5248 
     44 N          24.8068    1.8945   -7.8225 N.am      7 UNK        -0.4718 
     45 CA         24.9685    1.6203   -9.2545 C.3       7 UNK         0.0273 
     46 CB         24.8863    0.1026   -9.4869 C.3       7 UNK        -0.1935 
     47 C          26.2773    2.1761   -9.8491 C.2       7 UNK         0.5018 
     48 O          26.4004    2.2122  -11.0742 O.2       7 UNK        -0.5186 
     49 N          27.2223    2.5793   -8.9855 N.am      8 UNK        -0.4240 
     50 CA         28.5708    3.0653   -9.2894 C.3       8 UNK         0.0235 
     51 CB         28.5175    4.4207  -10.0264 C.3       8 UNK        -0.2000 
     52 C          29.4220    2.0069  -10.0140 C.2       8 UNK         0.4941 
     53 O          30.0810    2.3192  -11.0090 O.2       8 UNK        -0.5273 
     54 N          29.3830    0.7660   -9.5068 N.am      9 UNK        -0.4262 
     55 CA         30.1820   -0.3549  -10.0041 C.3       9 UNK         0.0264 
     56 CB         29.6779   -1.6564   -9.3635 C.3       9 UNK        -0.1955 
     57 C          31.6839   -0.1365   -9.7438 C.2       9 UNK         0.5031 
     58 O          32.0570    0.4016   -8.6971 O.2       9 UNK        -0.5390 
     59 N          32.5182   -0.5543  -10.7037 N.am      10 UNK        -0.4204 
     60 CA         33.9565   -0.2741  -10.7747 C.3       10 UNK         0.0237 
     61 CB         34.4117   -0.4148  -12.2406 C.3       10 UNK        -0.1985 
     62 C          34.8193   -1.1090   -9.8042 C.2       10 UNK         0.4970 
     63 O          35.7894   -1.7374  -10.2328 O.2       10 UNK        -0.4914 
     64 N          34.4711   -1.0845   -8.5138 N.am      11 UNK        -0.4285 
     65 CA         35.2672   -1.6703   -7.4212 C.3       11 UNK         0.1007 
     66 C          36.4307   -0.7588   -6.9315 C.2       11 UNK         0.5703 
     67 N          36.5271    0.4947   -7.3608 N.am      11 UNK        -0.7361 
     68 O          37.2739   -1.2036   -6.1561 O.2       11 UNK        -0.4986 
     69 C69        34.3773   -2.1258   -6.2373 C.3       12 UNK        -0.0947 
     70 S70        33.2540   -3.4819   -6.7088 S.3       12 UNK        -0.2240 
     71 C71        31.6257   -2.6962   -6.5125 C.3       12 UNK         0.0194 
     72 H72        26.1064   -4.2649   -3.7516 H         1 UNK         0.0906 
     73 H73        26.5651   -5.9686   -3.6579 H         1 UNK         0.0906 
     74 H74        25.0180   -5.4988   -4.3508 H         1 UNK         0.0906 
     75 H75        25.1670   -5.0095   -0.2244 H         1 UNK         0.3140 
     76 H76        26.9920   -3.9307    0.1012 H         1 UNK         0.1085 
     77 H77        28.3167   -4.4066   -2.5936 H         1 UNK         0.0836 
     78 H78        28.0659   -5.7596   -1.5262 H         1 UNK         0.0836 
     79 H79        30.8912   -5.2922   -2.2836 H         1 UNK         0.0731 
     80 H80        31.9031   -4.3190   -1.2449 H         1 UNK         0.0731 
     81 H81        31.4015   -4.4575   -4.4538 H         1 UNK         0.1312 
     82 H82        31.0898   -0.2789   -5.3584 H         1 UNK         0.1406 
     83 H83        30.5462   -1.6440   -1.3321 H         1 UNK         0.1631 
     84 H84        30.6723    1.3301   -3.6436 H         1 UNK         0.0717 
     85 H85        31.2920    0.8739   -2.0797 H         1 UNK         0.0717 
     86 H86        27.0973    2.2373   -2.6826 H         1 UNK         0.0934 
     87 H87        28.6226    2.9824   -3.0582 H         1 UNK         0.0934 
     88 H88        28.8822    1.7532   -5.1137 H         1 UNK         0.0739 
     89 H89        27.1556   -0.2313   -4.0227 H         1 UNK         0.3093 
     90 H90        26.4183   -1.8872   -7.0949 H         1 UNK         0.0818 
     91 H91        28.2661   -2.7256   -4.7967 H         1 UNK         0.0819 
     92 H92        27.3548   -3.8284   -5.8322 H         1 UNK         0.0819 
     93 H93        28.6171   -2.8247   -6.5130 H         1 UNK         0.0819 
     94 H94        25.8603   -2.2226   -4.2416 H         1 UNK         0.3041 
     95 H95        22.7325   -0.5232   -4.3659 H         1 UNK         0.0784 
     96 H96        23.2039   -3.5551   -4.3030 H         1 UNK         0.0793 
     97 H97        22.1370   -2.7137   -5.4183 H         1 UNK         0.0793 
     98 H98        21.7766   -2.7124   -3.7006 H         1 UNK         0.0793 
     99 H99        23.8764   -2.1517   -2.3430 H         1 UNK         0.3024 
    100 H100       26.2072    0.1242   -1.0081 H         1 UNK         0.1171 
    101 H101       24.8487   -0.0213    1.0574 H         1 UNK         0.0786 
    102 H102       24.0649    1.0434   -0.0962 H         1 UNK         0.0786 
    103 H103       23.4529   -0.5882    0.1386 H         1 UNK         0.0786 
    104 H104       25.3283   -2.2864    0.0964 H         1 UNK         0.2977 
    105 H105       25.3467    1.7239   -4.4821 H         1 UNK         0.3127 
    106 H106       24.7378    4.2707   -5.5258 H         1 UNK         0.0770 
    107 H107       22.9862    1.7583   -5.3707 H         1 UNK         0.0814 
    108 H108       22.3989    3.4014   -5.5868 H         1 UNK         0.0814 
    109 H109       23.1965    2.9486   -4.0881 H         1 UNK         0.0814 
    110 H110       24.9026    1.1010   -7.1962 H         1 UNK         0.2983 
    111 H111       24.1429    2.0947   -9.7895 H         1 UNK         0.0947 
    112 H112       24.9676   -0.1379  -10.5478 H         1 UNK         0.0806 
    113 H113       23.9370   -0.3024   -9.1362 H         1 UNK         0.0806 
    114 H114       25.6887   -0.4252   -8.9704 H         1 UNK         0.0806 
    115 H115       27.0134    2.4979   -7.9978 H         1 UNK         0.3000 
    116 H116       29.0560    3.2341   -8.3268 H         1 UNK         0.0850 
    117 H117       29.5177    4.8390  -10.1452 H         1 UNK         0.0810 
    118 H118       27.9257    5.1489   -9.4717 H         1 UNK         0.0810 
    119 H119       28.0854    4.3254  -11.0230 H         1 UNK         0.0810 
    120 H120       28.8329    0.5968   -8.6666 H         1 UNK         0.3040 
    121 H121       30.0255   -0.4226  -11.0829 H         1 UNK         0.0766 
    122 H122       28.6678   -1.8926   -9.6987 H         1 UNK         0.0812 
    123 H123       29.6504   -1.5783   -8.2783 H         1 UNK         0.0812 
    124 H124       30.3144   -2.5036   -9.6224 H         1 UNK         0.0812 
    125 H125       32.1249   -1.0327  -11.5017 H         1 UNK         0.3205 
    126 H126       34.1049    0.7703  -10.4914 H         1 UNK         0.0754 
    127 H127       33.8419    0.2418  -12.8986 H         1 UNK         0.0769 
    128 H128       34.2964   -1.4372  -12.6029 H         1 UNK         0.0769 
    129 H129       35.4626   -0.1444  -12.3541 H         1 UNK         0.0769 
    130 H130       33.6497   -0.5451   -8.2539 H         1 UNK         0.2981 
    131 H131       35.7572   -2.5659   -7.8082 H         1 UNK         0.0541 
    132 H132       35.8416    0.8753   -7.9923 H         1 UNK         0.3459 
    133 H133       37.2908    1.0682   -7.0385 H         1 UNK         0.3459 
    134 H134       33.8110   -1.2822   -5.8397 H         1 UNK         0.0612 
    135 H135       34.9878   -2.4966   -5.4119 H         1 UNK         0.0612 
    136 H136       30.8689   -3.3606   -6.9295 H         1 UNK         0.0624 
    137 H137       31.6110   -1.7828   -7.1058 H         1 UNK         0.0624 
@<TRIPOS>BOND
     1    1    2 1    
     2    1   72 1    
     3    1   73 1    
     4    1   74 1    
     5    2    3 2    
     6    2    4 am   BACKBONE|DICT|INTERRES
     7    4    5 1    
     8    4   75 1    
     9    5    6 1    
    10    5   35 1    
    11    5   76 1    
    12    6    7 1    
    13    6   77 1    
    14    6   78 1    
    15    7    8 1    
    16    8    9 1    
    17    8   79 1    
    18    8   80 1    
    19    9   10 ar   
    20    9   14 ar   
    21   10   11 ar   
    22   10   81 1    
    23   11   12 ar   
    24   11   71 1    
    25   12   13 ar   
    26   12   82 1    
    27   13   14 ar   
    28   13   15 1    
    29   14   83 1    
    30   15   16 1    
    31   15   84 1    
    32   15   85 1    
    33   16   17 1    
    34   17   18 1    
    35   17   86 1    
    36   17   87 1    
    37   18   19 1    
    38   18   37 1    
    39   18   88 1    
    40   19   20 am   BACKBONE|DICT|INTERRES
    41   19   89 1    
    42   20   21 2    
    43   20   22 1    
    44   22   23 1    
    45   22   24 1    
    46   22   90 1    
    47   23   91 1    
    48   23   92 1    
    49   23   93 1    
    50   24   25 am   BACKBONE|DICT|INTERRES
    51   24   94 1    
    52   25   26 2    
    53   25   27 1    
    54   27   28 1    
    55   27   29 1    
    56   27   95 1    
    57   28   96 1    
    58   28   97 1    
    59   28   98 1    
    60   29   30 am   BACKBONE|DICT|INTERRES
    61   29   99 1    
    62   30   31 2    
    63   30   32 1    
    64   32   33 1    
    65   32   34 1    
    66   32  100 1    
    67   33  101 1    
    68   33  102 1    
    69   33  103 1    
    70   34   35 am   BACKBONE|DICT|INTERRES
    71   34  104 1    
    72   35   36 2    
    73   37   38 2    
    74   37   39 am   BACKBONE|DICT|INTERRES
    75   39   40 1    
    76   39  105 1    
    77   40   41 1    
    78   40   42 1    
    79   40  106 1    
    80   41  107 1    
    81   41  108 1    
    82   41  109 1    
    83   42   43 2    
    84   42   44 am   BACKBONE|DICT|INTERRES
    85   44   45 1    
    86   44  110 1    
    87   45   46 1    
    88   45   47 1    
    89   45  111 1    
    90   46  112 1    
    91   46  113 1    
    92   46  114 1    
    93   47   48 2    
    94   47   49 am   BACKBONE|DICT|INTERRES
    95   49   50 1    
    96   49  115 1    
    97   50   51 1    
    98   50   52 1    
    99   50  116 1    
   100   51  117 1    
   101   51  118 1    
   102   51  119 1    
   103   52   53 2    
   104   52   54 am   BACKBONE|DICT|INTERRES
   105   54   55 1    
   106   54  120 1    
   107   55   56 1    
   108   55   57 1    
   109   55  121 1    
   110   56  122 1    
   111   56  123 1    
   112   56  124 1    
   113   57   58 2    
   114   57   59 am   BACKBONE|DICT|INTERRES
   115   59   60 1    
   116   59  125 1    
   117   60   61 1    
   118   60   62 1    
   119   60  126 1    
   120   61  127 1    
   121   61  128 1    
   122   61  129 1    
   123   62   63 2    
   124   62   64 am   BACKBONE|DICT|INTERRES
   125   64   65 1    
   126   64  130 1    
   127   65   66 1    
   128   65   69 1    
   129   65  131 1    
   130   66   67 am   BACKBONE|DICT|INTERRES
   131   66   68 2    
   132   67  132 1    
   133   67  133 1    
   134   69   70 1    
   135   69  134 1    
   136   69  135 1    
   137   70   71 1    
   138   71  136 1    
   139   71  137 1    
@<TRIPOS>SUBSTRUCTURE
     1 UNK         1 GROUP             0       ****    0 ROOT    
