@<TRIPOS>MOLECULE
3R137
137   139    1
SMALL
USER_CHARGES


@<TRIPOS>ATOM
      1 CA         26.1342   -7.9301   -4.8099 C.3       0 UNK        -0.2020 
      2 C          26.5991   -6.7596   -3.9571 C.2       0 UNK         0.4855 
      3 O          26.5440   -6.8345   -2.7286 O.2       0 UNK        -0.5197 
      4 N          27.0550   -5.6738   -4.5943 N.am      1 UNK        -0.4892 
      5 CA         27.5278   -4.4496   -3.9416 C.3       1 UNK         0.0835 
      6 C6         28.4605   -3.6233   -4.8652 C.3       12 UNK        -0.0855 
      7 S7         30.1075   -4.3815   -5.0663 S.3       12 UNK        -0.2931 
      8 C8         30.8839   -4.0940   -3.4355 C.3       12 UNK         0.0378 
      9 C9         30.8366   -2.6336   -3.0034 C.ar      12 UNK        -0.0802 
     10 C10        31.7202   -1.7089   -3.5653 C.ar      12 UNK        -0.0944 
     11 C11        31.6746   -0.3636   -3.1885 C.ar      12 UNK        -0.0787 
     12 C12        30.7358    0.0569   -2.2416 C.ar      12 UNK        -0.0862 
     13 C13        29.8419   -0.8582   -1.6743 C.ar      12 UNK        -0.0733 
     14 C14        29.9066   -2.2040   -2.0492 C.ar      12 UNK        -0.0832 
     15 C15        28.8038   -0.3955   -0.6589 C.3       12 UNK         0.0240 
     16 S16        27.1430   -0.2211   -1.3958 S.3       12 UNK        -0.2522 
     17 C17        27.4033    1.1324   -2.5893 C.3       12 UNK        -0.0967 
     18 CA         27.5614    0.5771   -4.0315 C.3       5 UNK         0.0660 
     19 N          26.3043    0.0650   -4.5938 N.am      5 UNK        -0.4015 
     20 C          25.3095    0.7834   -5.1360 C.2       4 UNK         0.4946 
     21 O          25.2848    2.0157   -5.1520 O.2       4 UNK        -0.5353 
     22 CA         24.1633    0.0161   -5.8104 C.3       4 UNK         0.0277 
     23 CB         24.5631   -0.4212   -7.2311 C.3       4 UNK        -0.1981 
     24 N          23.7131   -1.1553   -5.0527 N.am      4 UNK        -0.4209 
     25 C          22.4335   -1.5539   -4.9795 C.2       3 UNK         0.4942 
     26 O          21.4973   -0.9299   -5.4822 O.2       3 UNK        -0.5208 
     27 CA         22.1197   -2.8816   -4.2592 C.3       3 UNK         0.0250 
     28 CB         21.8133   -3.9858   -5.2851 C.3       3 UNK        -0.1990 
     29 N          23.1866   -3.3478   -3.3740 N.am      3 UNK        -0.4232 
     30 C          23.5201   -2.7784   -2.2096 C.2       2 UNK         0.4993 
     31 O          22.8989   -1.8416   -1.7066 O.2       2 UNK        -0.5286 
     32 CA         24.7604   -3.3316   -1.4840 C.3       2 UNK         0.0209 
     33 CB         24.3338   -4.2441   -0.3224 C.3       2 UNK        -0.1931 
     34 N          25.7408   -4.0502   -2.3129 N.am      2 UNK        -0.4546 
     35 C          26.3460   -3.6075   -3.4241 C.2       1 UNK         0.5154 
     36 O          26.0004   -2.5972   -4.0385 O.2       1 UNK        -0.5181 
     37 C          28.2557    1.5362   -5.0210 C.2       5 UNK         0.5014 
     38 O          28.6106    1.0967   -6.1140 O.2       5 UNK        -0.5248 
     39 N          28.3956    2.8201   -4.6583 N.am      6 UNK        -0.4434 
     40 CA         29.0466    3.8689   -5.4513 C.3       6 UNK         0.0363 
     41 CB         29.0959    5.1616   -4.6204 C.3       6 UNK        -0.1936 
     42 C          28.4178    4.1385   -6.8331 C.2       6 UNK         0.5081 
     43 O          29.0780    4.7475   -7.6754 O.2       6 UNK        -0.5248 
     44 N          27.1721    3.6939   -7.0558 N.am      7 UNK        -0.4718 
     45 CA         26.5120    3.7428   -8.3620 C.3       7 UNK         0.0273 
     46 CB         24.9891    3.6609   -8.1669 C.3       7 UNK        -0.1935 
     47 C          27.0033    2.6532   -9.3369 C.2       7 UNK         0.5018 
     48 O          26.7614    2.7892  -10.5374 O.2       7 UNK        -0.5186 
     49 N          27.6655    1.6000   -8.8338 N.am      8 UNK        -0.4240 
     50 CA         28.2565    0.5364   -9.6471 C.3       8 UNK         0.0235 
     51 CB         28.2349   -0.7833   -8.8555 C.3       8 UNK        -0.2000 
     52 C          29.6984    0.8899  -10.0400 C.2       8 UNK         0.4941 
     53 O          30.3835    1.6149   -9.3157 O.2       8 UNK        -0.5273 
     54 N          30.1592    0.3098  -11.1564 N.am      9 UNK        -0.4262 
     55 CA         31.5342    0.4372  -11.6564 C.3       9 UNK         0.0264 
     56 CB         31.5845   -0.0438  -13.1160 C.3       9 UNK        -0.1955 
     57 C          32.5788   -0.3142  -10.8069 C.2       9 UNK         0.5031 
     58 O          33.7719   -0.0366  -10.9406 O.2       9 UNK        -0.5390 
     59 N          32.1210   -1.2386   -9.9482 N.am      10 UNK        -0.4204 
     60 CA         32.9247   -2.0812   -9.0550 C.3       10 UNK         0.0237 
     61 CB         31.9832   -2.9958   -8.2525 C.3       10 UNK        -0.1985 
     62 C          33.8542   -1.3115   -8.0986 C.2       10 UNK         0.4970 
     63 O          34.8860   -1.8561   -7.7037 O.2       10 UNK        -0.4914 
     64 N          33.4850   -0.0722   -7.7528 N.am      11 UNK        -0.4285 
     65 CA         34.2898    0.8362   -6.9226 C.3       11 UNK         0.1007 
     66 C          35.4942    1.4842   -7.6672 C.2       11 UNK         0.5703 
     67 N          35.6273    1.3460   -8.9825 N.am      11 UNK        -0.7361 
     68 O          36.3335    2.1198   -7.0337 O.2       11 UNK        -0.4986 
     69 C69        33.4212    1.9141   -6.2182 C.3       12 UNK        -0.0947 
     70 S70        31.9462    1.2262   -5.3998 S.3       12 UNK        -0.2240 
     71 C71        32.6286    0.6318   -3.8276 C.3       12 UNK         0.0194 
     72 H72        25.0852   -8.1464   -4.6098 H         1 UNK         0.0906 
     73 H73        26.2420   -7.7275   -5.8753 H         1 UNK         0.0906 
     74 H74        26.7168   -8.8201   -4.5735 H         1 UNK         0.0906 
     75 H75        27.0757   -5.6635   -5.6044 H         1 UNK         0.3140 
     76 H76        28.1007   -4.7348   -3.0577 H         1 UNK         0.1085 
     77 H77        28.0111   -3.5027   -5.8526 H         1 UNK         0.0836 
     78 H78        28.6013   -2.6079   -4.4932 H         1 UNK         0.0836 
     79 H79        30.4097   -4.7312   -2.6882 H         1 UNK         0.0731 
     80 H80        31.9238   -4.4205   -3.4843 H         1 UNK         0.0731 
     81 H81        32.4338   -2.0340   -4.3105 H         1 UNK         0.1312 
     82 H82        30.6951    1.0993   -1.9569 H         1 UNK         0.1406 
     83 H83        29.2177   -2.9110   -1.6078 H         1 UNK         0.1631 
     84 H84        29.1009    0.5515   -0.2057 H         1 UNK         0.0717 
     85 H85        28.7500   -1.1168    0.1579 H         1 UNK         0.0717 
     86 H86        26.5601    1.8228   -2.5277 H         1 UNK         0.0934 
     87 H87        28.2831    1.6926   -2.2699 H         1 UNK         0.0934 
     88 H88        28.2311   -0.2823   -3.9826 H         1 UNK         0.0739 
     89 H89        26.2260   -0.9498   -4.5809 H         1 UNK         0.3093 
     90 H90        23.3413    0.7303   -5.8969 H         1 UNK         0.0818 
     91 H91        23.6962   -0.7662   -7.7948 H         1 UNK         0.0819 
     92 H92        25.0106    0.3977   -7.7947 H         1 UNK         0.0819 
     93 H93        25.2877   -1.2351   -7.2057 H         1 UNK         0.0819 
     94 H94        24.4288   -1.7167   -4.5982 H         1 UNK         0.3041 
     95 H95        21.2246   -2.7186   -3.6549 H         1 UNK         0.0784 
     96 H96        20.9944   -3.6917   -5.9433 H         1 UNK         0.0793 
     97 H97        22.6766   -4.2011   -5.9163 H         1 UNK         0.0793 
     98 H98        21.5143   -4.9125   -4.7949 H         1 UNK         0.0793 
     99 H99        23.7601   -4.1082   -3.7087 H         1 UNK         0.3024 
    100 H100       25.2759   -2.4676   -1.0615 H         1 UNK         0.1171 
    101 H101       23.6252   -3.7385    0.3355 H         1 UNK         0.0786 
    102 H102       25.1881   -4.5341    0.2897 H         1 UNK         0.0786 
    103 H103       23.8532   -5.1547   -0.6824 H         1 UNK         0.0786 
    104 H104       26.0353   -4.9591   -1.9704 H         1 UNK         0.2977 
    105 H105       28.0153    3.1095   -3.7697 H         1 UNK         0.3127 
    106 H106       30.0724    3.5448   -5.6353 H         1 UNK         0.0770 
    107 H107       28.0957    5.5235   -4.3787 H         1 UNK         0.0814 
    108 H108       29.6066    5.9571   -5.1652 H         1 UNK         0.0814 
    109 H109       29.6382    5.0145   -3.6862 H         1 UNK         0.0814 
    110 H110       26.6844    3.2031   -6.3134 H         1 UNK         0.2983 
    111 H111       26.7346    4.7065   -8.8256 H         1 UNK         0.0947 
    112 H112       24.4682    3.7327   -9.1226 H         1 UNK         0.0806 
    113 H113       24.6262    4.4750   -7.5394 H         1 UNK         0.0806 
    114 H114       24.6876    2.7232   -7.7024 H         1 UNK         0.0806 
    115 H115       27.9124    1.5891   -7.8468 H         1 UNK         0.3000 
    116 H116       27.6641    0.4019  -10.5549 H         1 UNK         0.0850 
    117 H117       28.5918   -1.6144   -9.4646 H         1 UNK         0.0810 
    118 H118       28.8677   -0.7367   -7.9683 H         1 UNK         0.0810 
    119 H119       27.2261   -1.0350   -8.5332 H         1 UNK         0.0810 
    120 H120       29.5354   -0.2731  -11.6974 H         1 UNK         0.3040 
    121 H121       31.8054    1.4950  -11.6366 H         1 UNK         0.0766 
    122 H122       32.5875    0.0702  -13.5302 H         1 UNK         0.0812 
    123 H123       30.9092    0.5330  -13.7484 H         1 UNK         0.0812 
    124 H124       31.3139   -1.0966  -13.2053 H         1 UNK         0.0812 
    125 H125       31.1237   -1.3849   -9.9190 H         1 UNK         0.3205 
    126 H126       33.5592   -2.7067   -9.6861 H         1 UNK         0.0754 
    127 H127       32.5468   -3.6581   -7.5935 H         1 UNK         0.0769 
    128 H128       31.3856   -3.6295   -8.9081 H         1 UNK         0.0769 
    129 H129       31.2998   -2.4216   -7.6245 H         1 UNK         0.0769 
    130 H130       32.6192    0.3036   -8.1121 H         1 UNK         0.2981 
    131 H131       34.7368    0.2299   -6.1329 H         1 UNK         0.0541 
    132 H132       34.9501    0.8236   -9.5281 H         1 UNK         0.3459 
    133 H133       36.4171    1.7699   -9.4420 H         1 UNK         0.3459 
    134 H134       33.0740    2.6510   -6.9448 H         1 UNK         0.0612 
    135 H135       34.0076    2.4641   -5.4799 H         1 UNK         0.0612 
    136 H136       32.8087    1.4797   -3.1652 H         1 UNK         0.0624 
    137 H137       33.5951    0.1558   -3.9977 H         1 UNK         0.0624 
@<TRIPOS>BOND
     1    1    2 1    
     2    1   72 1    
     3    1   73 1    
     4    1   74 1    
     5    2    3 2    
     6    2    4 am   BACKBONE|DICT|INTERRES
     7    4    5 1    
     8    4   75 1    
     9    5    6 1    
    10    5   35 1    
    11    5   76 1    
    12    6    7 1    
    13    6   77 1    
    14    6   78 1    
    15    7    8 1    
    16    8    9 1    
    17    8   79 1    
    18    8   80 1    
    19    9   10 ar   
    20    9   14 ar   
    21   10   11 ar   
    22   10   81 1    
    23   11   12 ar   
    24   11   71 1    
    25   12   13 ar   
    26   12   82 1    
    27   13   14 ar   
    28   13   15 1    
    29   14   83 1    
    30   15   16 1    
    31   15   84 1    
    32   15   85 1    
    33   16   17 1    
    34   17   18 1    
    35   17   86 1    
    36   17   87 1    
    37   18   19 1    
    38   18   37 1    
    39   18   88 1    
    40   19   20 am   BACKBONE|DICT|INTERRES
    41   19   89 1    
    42   20   21 2    
    43   20   22 1    
    44   22   23 1    
    45   22   24 1    
    46   22   90 1    
    47   23   91 1    
    48   23   92 1    
    49   23   93 1    
    50   24   25 am   BACKBONE|DICT|INTERRES
    51   24   94 1    
    52   25   26 2    
    53   25   27 1    
    54   27   28 1    
    55   27   29 1    
    56   27   95 1    
    57   28   96 1    
    58   28   97 1    
    59   28   98 1    
    60   29   30 am   BACKBONE|DICT|INTERRES
    61   29   99 1    
    62   30   31 2    
    63   30   32 1    
    64   32   33 1    
    65   32   34 1    
    66   32  100 1    
    67   33  101 1    
    68   33  102 1    
    69   33  103 1    
    70   34   35 am   BACKBONE|DICT|INTERRES
    71   34  104 1    
    72   35   36 2    
    73   37   38 2    
    74   37   39 am   BACKBONE|DICT|INTERRES
    75   39   40 1    
    76   39  105 1    
    77   40   41 1    
    78   40   42 1    
    79   40  106 1    
    80   41  107 1    
    81   41  108 1    
    82   41  109 1    
    83   42   43 2    
    84   42   44 am   BACKBONE|DICT|INTERRES
    85   44   45 1    
    86   44  110 1    
    87   45   46 1    
    88   45   47 1    
    89   45  111 1    
    90   46  112 1    
    91   46  113 1    
    92   46  114 1    
    93   47   48 2    
    94   47   49 am   BACKBONE|DICT|INTERRES
    95   49   50 1    
    96   49  115 1    
    97   50   51 1    
    98   50   52 1    
    99   50  116 1    
   100   51  117 1    
   101   51  118 1    
   102   51  119 1    
   103   52   53 2    
   104   52   54 am   BACKBONE|DICT|INTERRES
   105   54   55 1    
   106   54  120 1    
   107   55   56 1    
   108   55   57 1    
   109   55  121 1    
   110   56  122 1    
   111   56  123 1    
   112   56  124 1    
   113   57   58 2    
   114   57   59 am   BACKBONE|DICT|INTERRES
   115   59   60 1    
   116   59  125 1    
   117   60   61 1    
   118   60   62 1    
   119   60  126 1    
   120   61  127 1    
   121   61  128 1    
   122   61  129 1    
   123   62   63 2    
   124   62   64 am   BACKBONE|DICT|INTERRES
   125   64   65 1    
   126   64  130 1    
   127   65   66 1    
   128   65   69 1    
   129   65  131 1    
   130   66   67 am   BACKBONE|DICT|INTERRES
   131   66   68 2    
   132   67  132 1    
   133   67  133 1    
   134   69   70 1    
   135   69  134 1    
   136   69  135 1    
   137   70   71 1    
   138   71  136 1    
   139   71  137 1    
@<TRIPOS>SUBSTRUCTURE
     1 UNK         1 GROUP             0       ****    0 ROOT    
