@<TRIPOS>MOLECULE
3R137
137   139    1
SMALL
USER_CHARGES


@<TRIPOS>ATOM
      1 CA         26.0039   -3.1944    2.7135 C.3       0 UNK        -0.2020 
      2 C          26.9645   -2.6034    1.6930 C.2       0 UNK         0.4855 
      3 O          27.6447   -1.6197    1.9878 O.2       0 UNK        -0.5197 
      4 N          27.0206   -3.1844    0.4880 N.am      1 UNK        -0.4892 
      5 CA         27.8905   -2.7810   -0.6260 C.3       1 UNK         0.0835 
      6 C6         28.1719   -3.9770   -1.5745 C.3       12 UNK        -0.0855 
      7 S7         29.4344   -5.0848   -0.8434 S.3       12 UNK        -0.2931 
      8 C8         30.1924   -5.9405   -2.2745 C.3       12 UNK         0.0378 
      9 C9         30.4090   -5.0448   -3.4891 C.ar      12 UNK        -0.0802 
     10 C10        31.1237   -3.8465   -3.3809 C.ar      12 UNK        -0.0944 
     11 C11        31.2209   -2.9688   -4.4659 C.ar      12 UNK        -0.0787 
     12 C12        30.6142   -3.3231   -5.6779 C.ar      12 UNK        -0.0862 
     13 C13        29.9296   -4.5350   -5.8121 C.ar      12 UNK        -0.0733 
     14 C14        29.8376   -5.3941   -4.7150 C.ar      12 UNK        -0.0832 
     15 C15        29.2883   -4.9096   -7.1436 C.3       12 UNK         0.0240 
     16 S16        27.5197   -5.3503   -7.0158 S.3       12 UNK        -0.2522 
     17 C17        26.7733   -3.9107   -6.1773 C.3       12 UNK        -0.0967 
     18 CA         26.5020   -2.7210   -7.1375 C.3       5 UNK         0.0660 
     19 N          25.2266   -2.0521   -6.8567 N.am      5 UNK        -0.4015 
     20 C          24.6831   -1.0926   -7.6216 C.2       4 UNK         0.4946 
     21 O          25.1801   -0.6902   -8.6722 O.2       4 UNK        -0.5353 
     22 CA         23.3827   -0.4384   -7.1225 C.3       4 UNK         0.0277 
     23 CB         22.1602   -1.1829   -7.6825 C.3       4 UNK        -0.1981 
     24 N          23.2693   -0.3377   -5.6632 N.am      4 UNK        -0.4209 
     25 C          24.1442    0.2803   -4.8570 C.2       3 UNK         0.4942 
     26 O          25.1863    0.8048   -5.2609 O.2       3 UNK        -0.5208 
     27 CA         23.8113    0.3055   -3.3556 C.3       3 UNK         0.0250 
     28 CB         22.9385   -0.8770   -2.8846 C.3       3 UNK        -0.1990 
     29 N          25.0637    0.3063   -2.6110 N.am      3 UNK        -0.4232 
     30 C          25.3477    1.0156   -1.5191 C.2       2 UNK         0.4993 
     31 O          24.5281    1.7197   -0.9255 O.2       2 UNK        -0.5286 
     32 CA         26.8025    0.9146   -1.0171 C.3       2 UNK         0.0209 
     33 CB         27.0963    1.8928    0.1360 C.3       2 UNK        -0.1931 
     34 N          27.1878   -0.4347   -0.5909 N.am      2 UNK        -0.4546 
     35 C          27.3559   -1.5243   -1.3536 C.2       1 UNK         0.5154 
     36 O          27.1245   -1.5507   -2.5656 O.2       1 UNK        -0.5181 
     37 C          27.6755   -1.7228   -7.1370 C.2       5 UNK         0.5014 
     38 O          28.4331   -1.6744   -8.1066 O.2       5 UNK        -0.5248 
     39 N          27.7788   -0.9194   -6.0670 N.am      6 UNK        -0.4434 
     40 CA         28.7989    0.1185   -5.9092 C.3       6 UNK         0.0363 
     41 CB         28.7227    0.7230   -4.5000 C.3       6 UNK        -0.1936 
     42 C          28.7031    1.2198   -6.9717 C.2       6 UNK         0.5081 
     43 O          29.7396    1.6907   -7.4405 O.2       6 UNK        -0.5248 
     44 N          27.4699    1.5851   -7.3479 N.am      7 UNK        -0.4718 
     45 CA         27.1830    2.5298   -8.4269 C.3       7 UNK         0.0273 
     46 CB         25.6949    2.9131   -8.3984 C.3       7 UNK        -0.1935 
     47 C          27.5891    1.9862   -9.8076 C.2       7 UNK         0.5018 
     48 O          28.2377    2.7060  -10.5668 O.2       7 UNK        -0.5186 
     49 N          27.2220    0.7294  -10.1001 N.am      8 UNK        -0.4240 
     50 CA         27.5352    0.0393  -11.3546 C.3       8 UNK         0.0235 
     51 CB         26.7346   -1.2701  -11.4431 C.3       8 UNK        -0.2000 
     52 C          29.0362   -0.2340  -11.5353 C.2       8 UNK         0.4941 
     53 O          29.5635   -0.0052  -12.6247 O.2       8 UNK        -0.5273 
     54 N          29.6982   -0.7079  -10.4709 N.am      9 UNK        -0.4262 
     55 CA         31.1381   -0.9814  -10.4526 C.3       9 UNK         0.0264 
     56 CB         31.4540   -1.9165   -9.2777 C.3       9 UNK        -0.1955 
     57 C          32.0034    0.2875  -10.3593 C.2       9 UNK         0.5031 
     58 O          33.1893    0.2185  -10.6855 O.2       9 UNK        -0.5390 
     59 N          31.4077    1.4005   -9.9046 N.am      10 UNK        -0.4204 
     60 CA         32.0305    2.6939   -9.6095 C.3       10 UNK         0.0237 
     61 CB         32.5807    3.3580  -10.8902 C.3       10 UNK        -0.1985 
     62 C          33.0707    2.5736   -8.4804 C.2       10 UNK         0.4970 
     63 O          34.2251    2.9700   -8.6548 O.2       10 UNK        -0.4914 
     64 N          32.6358    2.0155   -7.3421 N.am      11 UNK        -0.4285 
     65 CA         33.4582    1.8432   -6.1309 C.3       11 UNK         0.1007 
     66 C          33.8428    3.1737   -5.4175 C.2       11 UNK         0.5703 
     67 N          33.1652    4.2875   -5.6718 N.am      11 UNK        -0.7361 
     68 O          34.7780    3.1938   -4.6206 O.2       11 UNK        -0.4986 
     69 C69        32.8130    0.8629   -5.1165 C.3       12 UNK        -0.0947 
     70 S70        32.5787   -0.8254   -5.7604 S.3       12 UNK        -0.2240 
     71 C71        31.9118   -1.6201   -4.2562 C.3       12 UNK         0.0194 
     72 H72        26.5496   -3.5100    3.6024 H         1 UNK         0.0906 
     73 H73        25.2683   -2.4481    3.0122 H         1 UNK         0.0906 
     74 H74        25.4698   -4.0588    2.3193 H         1 UNK         0.0906 
     75 H75        26.4248   -3.9785    0.3007 H         1 UNK         0.3140 
     76 H76        28.8502   -2.4652   -0.2089 H         1 UNK         0.1085 
     77 H77        27.2625   -4.5413   -1.7868 H         1 UNK         0.0836 
     78 H78        28.5272   -3.6183   -2.5390 H         1 UNK         0.0836 
     79 H79        31.1514   -6.3596   -1.9673 H         1 UNK         0.0731 
     80 H80        29.5583   -6.7899   -2.5335 H         1 UNK         0.0731 
     81 H81        31.5574   -3.5731   -2.4284 H         1 UNK         0.1312 
     82 H82        30.6554   -2.6500   -6.5197 H         1 UNK         0.1406 
     83 H83        29.2892   -6.3215   -4.8117 H         1 UNK         0.1631 
     84 H84        29.8270   -5.7620   -7.5592 H         1 UNK         0.0717 
     85 H85        29.3974   -4.1053   -7.8704 H         1 UNK         0.0717 
     86 H86        25.8325   -4.2755   -5.7623 H         1 UNK         0.0934 
     87 H87        27.3682   -3.6261   -5.3063 H         1 UNK         0.0934 
     88 H88        26.4134   -3.1075   -8.1556 H         1 UNK         0.0739 
     89 H89        24.7455   -2.3178   -6.0109 H         1 UNK         0.3093 
     90 H90        23.3667    0.5803   -7.5148 H         1 UNK         0.0818 
     91 H91        21.2323   -0.6657   -7.4370 H         1 UNK         0.0819 
     92 H92        22.2105   -1.2518   -8.7703 H         1 UNK         0.0819 
     93 H93        22.0920   -2.2001   -7.2948 H         1 UNK         0.0819 
     94 H94        22.4427   -0.7420   -5.2470 H         1 UNK         0.3041 
     95 H95        23.2755    1.2385   -3.1692 H         1 UNK         0.0784 
     96 H96        21.9444   -0.8483   -3.3318 H         1 UNK         0.0793 
     97 H97        23.3923   -1.8383   -3.1302 H         1 UNK         0.0793 
     98 H98        22.7949   -0.8493   -1.8041 H         1 UNK         0.0793 
     99 H99        25.8057   -0.2765   -2.9907 H         1 UNK         0.3024 
    100 H100       27.4437    1.1963   -1.8541 H         1 UNK         0.1171 
    101 H101       26.5108    1.6547    1.0251 H         1 UNK         0.0786 
    102 H102       26.8576    2.9186   -0.1486 H         1 UNK         0.0786 
    103 H103       28.1502    1.8737    0.4142 H         1 UNK         0.0786 
    104 H104       27.3651   -0.5570    0.4028 H         1 UNK         0.2977 
    105 H105       27.0963   -0.9966   -5.3265 H         1 UNK         0.3127 
    106 H106       29.7706   -0.3589   -6.0275 H         1 UNK         0.0770 
    107 H107       28.9312   -0.0263   -3.7378 H         1 UNK         0.0814 
    108 H108       27.7395    1.1493   -4.2994 H         1 UNK         0.0814 
    109 H109       29.4545    1.5218   -4.3749 H         1 UNK         0.0814 
    110 H110       26.6783    1.1640   -6.8746 H         1 UNK         0.2983 
    111 H111       27.7691    3.4329   -8.2421 H         1 UNK         0.0947 
    112 H112       25.4718    3.6616   -9.1598 H         1 UNK         0.0806 
    113 H113       25.4123    3.3361   -7.4341 H         1 UNK         0.0806 
    114 H114       25.0508    2.0546   -8.5881 H         1 UNK         0.0806 
    115 H115       26.6481    0.2162   -9.4336 H         1 UNK         0.3000 
    116 H116       27.2175    0.6858  -12.1755 H         1 UNK         0.0850 
    117 H117       26.9509   -1.8009  -12.3711 H         1 UNK         0.0810 
    118 H118       25.6615   -1.0792  -11.4213 H         1 UNK         0.0810 
    119 H119       26.9695   -1.9430  -10.6171 H         1 UNK         0.0810 
    120 H120       29.1797   -0.9250   -9.6198 H         1 UNK         0.3040 
    121 H121       31.4047   -1.4951  -11.3787 H         1 UNK         0.0766 
    122 H122       32.5146   -2.1694   -9.2462 H         1 UNK         0.0812 
    123 H123       30.8969   -2.8501   -9.3497 H         1 UNK         0.0812 
    124 H124       31.2026   -1.4424   -8.3298 H         1 UNK         0.0812 
    125 H125       30.4398    1.3226   -9.6187 H         1 UNK         0.3205 
    126 H126       31.2335    3.3340   -9.2277 H         1 UNK         0.0754 
    127 H127       32.9415    4.3657  -10.6806 H         1 UNK         0.0769 
    128 H128       31.8073    3.4425  -11.6538 H         1 UNK         0.0769 
    129 H129       33.4136    2.7985  -11.3169 H         1 UNK         0.0769 
    130 H130       31.6585    1.7440   -7.2770 H         1 UNK         0.2981 
    131 H131       34.4019    1.3985   -6.4528 H         1 UNK         0.0541 
    132 H132       32.3929    4.2803   -6.3180 H         1 UNK         0.3459 
    133 H133       33.4275    5.1418   -5.2062 H         1 UNK         0.3459 
    134 H134       33.4305    0.7817   -4.2196 H         1 UNK         0.0612 
    135 H135       31.8457    1.2469   -4.7892 H         1 UNK         0.0612 
    136 H136       32.7323   -1.7325   -3.5458 H         1 UNK         0.0624 
    137 H137       31.1906   -0.9480   -3.7910 H         1 UNK         0.0624 
@<TRIPOS>BOND
     1    1    2 1    
     2    1   72 1    
     3    1   73 1    
     4    1   74 1    
     5    2    3 2    
     6    2    4 am   BACKBONE|DICT|INTERRES
     7    4    5 1    
     8    4   75 1    
     9    5    6 1    
    10    5   35 1    
    11    5   76 1    
    12    6    7 1    
    13    6   77 1    
    14    6   78 1    
    15    7    8 1    
    16    8    9 1    
    17    8   79 1    
    18    8   80 1    
    19    9   10 ar   
    20    9   14 ar   
    21   10   11 ar   
    22   10   81 1    
    23   11   12 ar   
    24   11   71 1    
    25   12   13 ar   
    26   12   82 1    
    27   13   14 ar   
    28   13   15 1    
    29   14   83 1    
    30   15   16 1    
    31   15   84 1    
    32   15   85 1    
    33   16   17 1    
    34   17   18 1    
    35   17   86 1    
    36   17   87 1    
    37   18   19 1    
    38   18   37 1    
    39   18   88 1    
    40   19   20 am   BACKBONE|DICT|INTERRES
    41   19   89 1    
    42   20   21 2    
    43   20   22 1    
    44   22   23 1    
    45   22   24 1    
    46   22   90 1    
    47   23   91 1    
    48   23   92 1    
    49   23   93 1    
    50   24   25 am   BACKBONE|DICT|INTERRES
    51   24   94 1    
    52   25   26 2    
    53   25   27 1    
    54   27   28 1    
    55   27   29 1    
    56   27   95 1    
    57   28   96 1    
    58   28   97 1    
    59   28   98 1    
    60   29   30 am   BACKBONE|DICT|INTERRES
    61   29   99 1    
    62   30   31 2    
    63   30   32 1    
    64   32   33 1    
    65   32   34 1    
    66   32  100 1    
    67   33  101 1    
    68   33  102 1    
    69   33  103 1    
    70   34   35 am   BACKBONE|DICT|INTERRES
    71   34  104 1    
    72   35   36 2    
    73   37   38 2    
    74   37   39 am   BACKBONE|DICT|INTERRES
    75   39   40 1    
    76   39  105 1    
    77   40   41 1    
    78   40   42 1    
    79   40  106 1    
    80   41  107 1    
    81   41  108 1    
    82   41  109 1    
    83   42   43 2    
    84   42   44 am   BACKBONE|DICT|INTERRES
    85   44   45 1    
    86   44  110 1    
    87   45   46 1    
    88   45   47 1    
    89   45  111 1    
    90   46  112 1    
    91   46  113 1    
    92   46  114 1    
    93   47   48 2    
    94   47   49 am   BACKBONE|DICT|INTERRES
    95   49   50 1    
    96   49  115 1    
    97   50   51 1    
    98   50   52 1    
    99   50  116 1    
   100   51  117 1    
   101   51  118 1    
   102   51  119 1    
   103   52   53 2    
   104   52   54 am   BACKBONE|DICT|INTERRES
   105   54   55 1    
   106   54  120 1    
   107   55   56 1    
   108   55   57 1    
   109   55  121 1    
   110   56  122 1    
   111   56  123 1    
   112   56  124 1    
   113   57   58 2    
   114   57   59 am   BACKBONE|DICT|INTERRES
   115   59   60 1    
   116   59  125 1    
   117   60   61 1    
   118   60   62 1    
   119   60  126 1    
   120   61  127 1    
   121   61  128 1    
   122   61  129 1    
   123   62   63 2    
   124   62   64 am   BACKBONE|DICT|INTERRES
   125   64   65 1    
   126   64  130 1    
   127   65   66 1    
   128   65   69 1    
   129   65  131 1    
   130   66   67 am   BACKBONE|DICT|INTERRES
   131   66   68 2    
   132   67  132 1    
   133   67  133 1    
   134   69   70 1    
   135   69  134 1    
   136   69  135 1    
   137   70   71 1    
   138   71  136 1    
   139   71  137 1    
@<TRIPOS>SUBSTRUCTURE
     1 UNK         1 GROUP             0       ****    0 ROOT    
