@<TRIPOS>MOLECULE
3R137
137   139    1
SMALL
USER_CHARGES


@<TRIPOS>ATOM
      1 CA         29.3924    2.6539   -3.0781 C.3       0 UNK        -0.2020 
      2 C          28.8615    1.4688   -2.2843 C.2       0 UNK         0.4855 
      3 O          28.4367    1.6451   -1.1421 O.2       0 UNK        -0.5197 
      4 N          28.8888    0.2710   -2.8860 N.am      1 UNK        -0.4892 
      5 CA         28.3993   -0.9999   -2.3293 C.3       1 UNK         0.0835 
      6 C6         29.1818   -1.4877   -1.0744 C.3       12 UNK        -0.0855 
      7 S7         30.9900   -1.5571   -1.3306 S.3       12 UNK        -0.2931 
      8 C8         31.3070   -3.3398   -1.5217 C.3       12 UNK         0.0378 
      9 C9         31.0558   -3.8192   -2.9447 C.ar      12 UNK        -0.0802 
     10 C10        32.0987   -3.8267   -3.8774 C.ar      12 UNK        -0.0944 
     11 C11        31.8985   -4.3147   -5.1736 C.ar      12 UNK        -0.0787 
     12 C12        30.6334   -4.7957   -5.5279 C.ar      12 UNK        -0.0862 
     13 C13        29.5714   -4.7554   -4.6196 C.ar      12 UNK        -0.0733 
     14 C14        29.7929   -4.2832   -3.3229 C.ar      12 UNK        -0.0832 
     15 C15        28.1804   -5.2052   -5.0476 C.3       12 UNK         0.0240 
     16 S16        27.5848   -4.3009   -6.5156 S.3       12 UNK        -0.2522 
     17 C17        27.7723   -2.5678   -5.9746 C.3       12 UNK        -0.0967 
     18 CA         27.1294   -1.5671   -6.9612 C.3       5 UNK         0.0660 
     19 N          25.7117   -1.8727   -7.1594 N.am      5 UNK        -0.4015 
     20 C          24.8194   -1.2258   -7.9204 C.2       4 UNK         0.4946 
     21 O          25.1087   -0.3026   -8.6808 O.2       4 UNK        -0.5353 
     22 CA         23.3412   -1.6307   -7.7307 C.3       4 UNK         0.0277 
     23 CB         22.8795   -2.5294   -8.8885 C.3       4 UNK        -0.1981 
     24 N          23.0726   -2.3060   -6.4483 N.am      4 UNK        -0.4209 
     25 C          23.3219   -1.7797   -5.2383 C.2       3 UNK         0.4942 
     26 O          23.6993   -0.6150   -5.0796 O.2       3 UNK        -0.5208 
     27 CA         23.2353   -2.7244   -4.0263 C.3       3 UNK         0.0250 
     28 CB         23.8020   -4.1311   -4.3346 C.3       3 UNK        -0.1990 
     29 N          23.9841   -2.1028   -2.9363 N.am      3 UNK        -0.4232 
     30 C          24.0171   -2.4571   -1.6495 C.2       2 UNK         0.4993 
     31 O          23.3970   -3.4176   -1.1887 O.2       2 UNK        -0.5286 
     32 CA         24.9001   -1.5877   -0.7273 C.3       2 UNK         0.0209 
     33 CB         24.7751   -1.9863    0.7559 C.3       2 UNK        -0.1931 
     34 N          26.3226   -1.6018   -1.0974 N.am      2 UNK        -0.4546 
     35 C          26.8623   -0.9545   -2.1412 C.2       1 UNK         0.5154 
     36 O          26.1807   -0.3409   -2.9633 O.2       1 UNK        -0.5181 
     37 C          27.4094   -0.1178   -6.4981 C.2       5 UNK         0.5014 
     38 O          28.5391    0.3483   -6.6641 O.2       5 UNK        -0.5248 
     39 N          26.4031    0.5814   -5.9496 N.am      6 UNK        -0.4434 
     40 CA         26.4532    2.0129   -5.6502 C.3       6 UNK         0.0363 
     41 CB         25.2008    2.4256   -4.8620 C.3       6 UNK        -0.1936 
     42 C          26.5976    2.8762   -6.9143 C.2       6 UNK         0.5081 
     43 O          27.3561    3.8445   -6.8955 O.2       6 UNK        -0.5248 
     44 N          25.9159    2.4907   -8.0045 N.am      7 UNK        -0.4718 
     45 CA         26.0113    3.1540   -9.3105 C.3       7 UNK         0.0273 
     46 CB         24.8202    2.7427  -10.1905 C.3       7 UNK        -0.1935 
     47 C          27.3427    2.8555  -10.0202 C.2       7 UNK         0.5018 
     48 O          27.8224    3.6912  -10.7861 O.2       7 UNK        -0.5186 
     49 N          27.9338    1.6912   -9.7174 N.am      8 UNK        -0.4240 
     50 CA         29.2840    1.3006  -10.1302 C.3       8 UNK         0.0235 
     51 CB         29.3845   -0.2348  -10.1337 C.3       8 UNK        -0.2000 
     52 C          30.3858    1.9089   -9.2397 C.2       8 UNK         0.4941 
     53 O          31.5614    1.6659   -9.5120 O.2       8 UNK        -0.5273 
     54 N          30.0045    2.6459   -8.1829 N.am      9 UNK        -0.4262 
     55 CA         30.8653    3.2861   -7.1824 C.3       9 UNK         0.0264 
     56 CB         31.6360    4.4658   -7.8124 C.3       9 UNK        -0.1955 
     57 C          31.7846    2.2885   -6.4496 C.2       9 UNK         0.5031 
     58 O          32.9568    2.5944   -6.2237 O.2       9 UNK        -0.5390 
     59 N          31.2313    1.1132   -6.1055 N.am      10 UNK        -0.4204 
     60 CA         31.9185   -0.0377   -5.5039 C.3       10 UNK         0.0237 
     61 CB         32.4573    0.2964   -4.0958 C.3       10 UNK        -0.1985 
     62 C          32.9982   -0.6162   -6.4391 C.2       10 UNK         0.4970 
     63 O          34.1361   -0.8312   -6.0166 O.2       10 UNK        -0.4914 
     64 N          32.6003   -0.8640   -7.6938 N.am      11 UNK        -0.4285 
     65 CA         33.4224   -1.4497   -8.7659 C.3       11 UNK         0.1007 
     66 C          34.5511   -0.4975   -9.2607 C.2       11 UNK         0.5703 
     67 N          34.2734    0.7894   -9.4235 N.am      11 UNK        -0.7361 
     68 O          35.6790   -0.9168   -9.5134 O.2       11 UNK        -0.4986 
     69 C69        33.9254   -2.8914   -8.4509 C.3       12 UNK        -0.0947 
     70 S70        32.5936   -4.0105   -7.8926 S.3       12 UNK        -0.2240 
     71 C71        33.0684   -4.3419   -6.1564 C.3       12 UNK         0.0194 
     72 H72        30.2948    3.0449   -2.6088 H         1 UNK         0.0906 
     73 H73        29.6340    2.3826   -4.1044 H         1 UNK         0.0906 
     74 H74        28.6495    3.4508   -3.1061 H         1 UNK         0.0906 
     75 H75        29.2245    0.2139   -3.8356 H         1 UNK         0.3140 
     76 H76        28.5672   -1.7372   -3.1128 H         1 UNK         0.1085 
     77 H77        28.9954   -0.8241   -0.2281 H         1 UNK         0.0836 
     78 H78        28.8409   -2.4756   -0.7623 H         1 UNK         0.0836 
     79 H79        30.7068   -3.9099   -0.8110 H         1 UNK         0.0731 
     80 H80        32.3463   -3.5335   -1.2516 H         1 UNK         0.0731 
     81 H81        33.0752   -3.4638   -3.5860 H         1 UNK         0.1312 
     82 H82        30.4599   -5.1822   -6.5226 H         1 UNK         0.1406 
     83 H83        28.9832   -4.2759   -2.6065 H         1 UNK         0.1631 
     84 H84        27.4600   -5.0731   -4.2387 H         1 UNK         0.0717 
     85 H85        28.2026   -6.2723   -5.2722 H         1 UNK         0.0717 
     86 H86        28.8386   -2.3592   -5.8624 H         1 UNK         0.0934 
     87 H87        27.3247   -2.4669   -4.9845 H         1 UNK         0.0934 
     88 H88        27.6102   -1.6857   -7.9330 H         1 UNK         0.0739 
     89 H89        25.3661   -2.6425   -6.6079 H         1 UNK         0.3093 
     90 H90        22.7519   -0.7115   -7.7501 H         1 UNK         0.0818 
     91 H91        21.8143   -2.7509   -8.8197 H         1 UNK         0.0819 
     92 H92        23.0446   -2.0410   -9.8502 H         1 UNK         0.0819 
     93 H93        23.4208   -3.4762   -8.9072 H         1 UNK         0.0819 
     94 H94        22.7528   -3.2628   -6.5016 H         1 UNK         0.3041 
     95 H95        22.1870   -2.8033   -3.7327 H         1 UNK         0.0784 
     96 H96        23.2229   -4.6416   -5.1044 H         1 UNK         0.0793 
     97 H97        24.8378   -4.0838   -4.6727 H         1 UNK         0.0793 
     98 H98        23.7750   -4.7762   -3.4567 H         1 UNK         0.0793 
     99 H99        24.5230   -1.2839   -3.2188 H         1 UNK         0.3024 
    100 H100       24.5338   -0.5625   -0.8221 H         1 UNK         0.1171 
    101 H101       25.3389   -1.3093    1.3982 H         1 UNK         0.0786 
    102 H102       25.1373   -2.9996    0.9346 H         1 UNK         0.0786 
    103 H103       23.7357   -1.9486    1.0851 H         1 UNK         0.0786 
    104 H104       26.9329   -2.1117   -0.4764 H         1 UNK         0.2977 
    105 H105       25.5193    0.1177   -5.7633 H         1 UNK         0.3127 
    106 H106       27.3260    2.1926   -5.0220 H         1 UNK         0.0770 
    107 H107       24.2867    2.2296   -5.4239 H         1 UNK         0.0814 
    108 H108       25.2199    3.4904   -4.6261 H         1 UNK         0.0814 
    109 H109       25.1311    1.8877   -3.9170 H         1 UNK         0.0814 
    110 H110       25.3705    1.6354   -7.9714 H         1 UNK         0.2983 
    111 H111       25.9587    4.2335   -9.1509 H         1 UNK         0.0947 
    112 H112       24.8358    3.2799  -11.1398 H         1 UNK         0.0806 
    113 H113       23.8705    2.9695   -9.7059 H         1 UNK         0.0806 
    114 H114       24.8338    1.6772  -10.4217 H         1 UNK         0.0806 
    115 H115       27.4483    1.0664   -9.0891 H         1 UNK         0.3000 
    116 H116       29.4562    1.6559  -11.1485 H         1 UNK         0.0850 
    117 H117       30.3299   -0.5608  -10.5696 H         1 UNK         0.0810 
    118 H118       28.5863   -0.6872  -10.7226 H         1 UNK         0.0810 
    119 H119       29.3369   -0.6457   -9.1258 H         1 UNK         0.0810 
    120 H120       29.0119    2.7700   -8.0296 H         1 UNK         0.3040 
    121 H121       30.1976    3.6966   -6.4235 H         1 UNK         0.0766 
    122 H122       32.1845    5.0253   -7.0538 H         1 UNK         0.0812 
    123 H123       30.9584    5.1650   -8.3024 H         1 UNK         0.0812 
    124 H124       32.3605    4.1253   -8.5530 H         1 UNK         0.0812 
    125 H125       30.2593    0.9518   -6.3704 H         1 UNK         0.3205 
    126 H126       31.1668   -0.8204   -5.3868 H         1 UNK         0.0754 
    127 H127       32.8497   -0.5988   -3.6119 H         1 UNK         0.0769 
    128 H128       31.6772    0.6949   -3.4499 H         1 UNK         0.0769 
    129 H129       33.2677    1.0247   -4.1284 H         1 UNK         0.0769 
    130 H130       31.6642   -0.6025   -7.9612 H         1 UNK         0.2981 
    131 H131       32.7502   -1.5402   -9.6198 H         1 UNK         0.0541 
    132 H132       33.3237    1.1337   -9.2977 H         1 UNK         0.3459 
    133 H133       34.9955    1.4144   -9.7421 H         1 UNK         0.3459 
    134 H134       34.7316   -2.8671   -7.7169 H         1 UNK         0.0612 
    135 H135       34.3613   -3.3333   -9.3484 H         1 UNK         0.0612 
    136 H136       33.8184   -3.6182   -5.8367 H         1 UNK         0.0624 
    137 H137       33.5468   -5.3206   -6.1074 H         1 UNK         0.0624 
@<TRIPOS>BOND
     1    1    2 1    
     2    1   72 1    
     3    1   73 1    
     4    1   74 1    
     5    2    3 2    
     6    2    4 am   BACKBONE|DICT|INTERRES
     7    4    5 1    
     8    4   75 1    
     9    5    6 1    
    10    5   35 1    
    11    5   76 1    
    12    6    7 1    
    13    6   77 1    
    14    6   78 1    
    15    7    8 1    
    16    8    9 1    
    17    8   79 1    
    18    8   80 1    
    19    9   10 ar   
    20    9   14 ar   
    21   10   11 ar   
    22   10   81 1    
    23   11   12 ar   
    24   11   71 1    
    25   12   13 ar   
    26   12   82 1    
    27   13   14 ar   
    28   13   15 1    
    29   14   83 1    
    30   15   16 1    
    31   15   84 1    
    32   15   85 1    
    33   16   17 1    
    34   17   18 1    
    35   17   86 1    
    36   17   87 1    
    37   18   19 1    
    38   18   37 1    
    39   18   88 1    
    40   19   20 am   BACKBONE|DICT|INTERRES
    41   19   89 1    
    42   20   21 2    
    43   20   22 1    
    44   22   23 1    
    45   22   24 1    
    46   22   90 1    
    47   23   91 1    
    48   23   92 1    
    49   23   93 1    
    50   24   25 am   BACKBONE|DICT|INTERRES
    51   24   94 1    
    52   25   26 2    
    53   25   27 1    
    54   27   28 1    
    55   27   29 1    
    56   27   95 1    
    57   28   96 1    
    58   28   97 1    
    59   28   98 1    
    60   29   30 am   BACKBONE|DICT|INTERRES
    61   29   99 1    
    62   30   31 2    
    63   30   32 1    
    64   32   33 1    
    65   32   34 1    
    66   32  100 1    
    67   33  101 1    
    68   33  102 1    
    69   33  103 1    
    70   34   35 am   BACKBONE|DICT|INTERRES
    71   34  104 1    
    72   35   36 2    
    73   37   38 2    
    74   37   39 am   BACKBONE|DICT|INTERRES
    75   39   40 1    
    76   39  105 1    
    77   40   41 1    
    78   40   42 1    
    79   40  106 1    
    80   41  107 1    
    81   41  108 1    
    82   41  109 1    
    83   42   43 2    
    84   42   44 am   BACKBONE|DICT|INTERRES
    85   44   45 1    
    86   44  110 1    
    87   45   46 1    
    88   45   47 1    
    89   45  111 1    
    90   46  112 1    
    91   46  113 1    
    92   46  114 1    
    93   47   48 2    
    94   47   49 am   BACKBONE|DICT|INTERRES
    95   49   50 1    
    96   49  115 1    
    97   50   51 1    
    98   50   52 1    
    99   50  116 1    
   100   51  117 1    
   101   51  118 1    
   102   51  119 1    
   103   52   53 2    
   104   52   54 am   BACKBONE|DICT|INTERRES
   105   54   55 1    
   106   54  120 1    
   107   55   56 1    
   108   55   57 1    
   109   55  121 1    
   110   56  122 1    
   111   56  123 1    
   112   56  124 1    
   113   57   58 2    
   114   57   59 am   BACKBONE|DICT|INTERRES
   115   59   60 1    
   116   59  125 1    
   117   60   61 1    
   118   60   62 1    
   119   60  126 1    
   120   61  127 1    
   121   61  128 1    
   122   61  129 1    
   123   62   63 2    
   124   62   64 am   BACKBONE|DICT|INTERRES
   125   64   65 1    
   126   64  130 1    
   127   65   66 1    
   128   65   69 1    
   129   65  131 1    
   130   66   67 am   BACKBONE|DICT|INTERRES
   131   66   68 2    
   132   67  132 1    
   133   67  133 1    
   134   69   70 1    
   135   69  134 1    
   136   69  135 1    
   137   70   71 1    
   138   71  136 1    
   139   71  137 1    
@<TRIPOS>SUBSTRUCTURE
     1 UNK         1 GROUP             0       ****    0 ROOT    
