@<TRIPOS>MOLECULE
3R137
137   139    1
SMALL
USER_CHARGES


@<TRIPOS>ATOM
      1 CA         29.8446   -3.8742   -4.4979 C.3       0 UNK        -0.2020 
      2 C          28.9650   -5.1212   -4.5365 C.2       0 UNK         0.4855 
      3 O          29.1450   -5.9388   -5.4372 O.2       0 UNK        -0.5197 
      4 N          28.0213   -5.3519   -3.6091 N.am      1 UNK        -0.4892 
      5 CA         27.5442   -4.5329   -2.4805 C.3       1 UNK         0.0835 
      6 C6         28.6478   -3.9768   -1.5374 C.3       12 UNK        -0.0855 
      7 S7         29.9410   -5.1460   -0.9842 S.3       12 UNK        -0.2931 
      8 C8         31.0556   -4.0499   -0.0233 C.3       12 UNK         0.0378 
      9 C9         31.6179   -2.9124   -0.8697 C.ar      12 UNK        -0.0802 
     10 C10        32.8081   -3.0676   -1.5873 C.ar      12 UNK        -0.0944 
     11 C11        33.2449   -2.0623   -2.4586 C.ar      12 UNK        -0.0787 
     12 C12        32.4641   -0.9146   -2.6371 C.ar      12 UNK        -0.0862 
     13 C13        31.2744   -0.7511   -1.9216 C.ar      12 UNK        -0.0733 
     14 C14        30.9015   -1.7187   -0.9863 C.ar      12 UNK        -0.0832 
     15 C15        30.3297    0.4057   -2.2198 C.3       12 UNK         0.0240 
     16 S16        28.7574   -0.2511   -2.8692 S.3       12 UNK        -0.2522 
     17 C17        27.8269    1.2350   -3.3541 C.3       12 UNK        -0.0967 
     18 CA         27.6245    1.3300   -4.8878 C.3       5 UNK         0.0660 
     19 N          27.1197    0.0921   -5.4980 N.am      5 UNK        -0.4015 
     20 C          27.0762   -0.1395   -6.8185 C.2       4 UNK         0.4946 
     21 O          27.5002    0.6509   -7.6606 O.2       4 UNK        -0.5353 
     22 CA         26.4478   -1.4574   -7.2908 C.3       4 UNK         0.0277 
     23 CB         27.5138   -2.5560   -7.4125 C.3       4 UNK        -0.1981 
     24 N          25.3768   -1.8969   -6.3975 N.am      4 UNK        -0.4209 
     25 C          24.1361   -1.3889   -6.4153 C.2       3 UNK         0.4942 
     26 O          23.7549   -0.5456   -7.2273 O.2       3 UNK        -0.5208 
     27 CA         23.1654   -1.8720   -5.3220 C.3       3 UNK         0.0250 
     28 CB         22.4472   -3.1558   -5.7668 C.3       3 UNK        -0.1990 
     29 N          23.8101   -2.0958   -4.0242 N.am      3 UNK        -0.4232 
     30 C          24.4289   -1.1441   -3.3126 C.2       2 UNK         0.4993 
     31 O          24.5006    0.0344   -3.6635 O.2       2 UNK        -0.5286 
     32 CA         25.1211   -1.5741   -2.0087 C.3       2 UNK         0.0209 
     33 CB         24.1254   -1.5175   -0.8391 C.3       2 UNK        -0.1931 
     34 N          25.8017   -2.8798   -2.0039 N.am      2 UNK        -0.4546 
     35 C          26.6332   -3.3689   -2.9383 C.2       1 UNK         0.5154 
     36 O          26.7385   -2.9013   -4.0745 O.2       1 UNK        -0.5181 
     37 C          26.7155    2.5205   -5.2418 C.2       5 UNK         0.5014 
     38 O          27.2194    3.5676   -5.6474 O.2       5 UNK        -0.5248 
     39 N          25.3929    2.3155   -5.1415 N.am      6 UNK        -0.4434 
     40 CA         24.3563    3.2706   -5.5447 C.3       6 UNK         0.0363 
     41 CB         22.9789    2.7193   -5.1436 C.3       6 UNK        -0.1936 
     42 C          24.3845    3.6049   -7.0476 C.2       6 UNK         0.5081 
     43 O          24.0989    4.7428   -7.4203 O.2       6 UNK        -0.5248 
     44 N          24.7523    2.6202   -7.8782 N.am      7 UNK        -0.4718 
     45 CA         24.9469    2.7728   -9.3225 C.3       7 UNK         0.0273 
     46 CB         24.7881    1.3948   -9.9872 C.3       7 UNK        -0.1935 
     47 C          26.3083    3.3914   -9.6985 C.2       7 UNK         0.5018 
     48 O          26.5053    3.7113  -10.8714 O.2       7 UNK        -0.5186 
     49 N          27.2238    3.5182   -8.7235 N.am      8 UNK        -0.4240 
     50 CA         28.6304    3.9213   -8.8584 C.3       8 UNK         0.0235 
     51 CB         28.7451    5.3968   -9.2969 C.3       8 UNK        -0.2000 
     52 C          29.4456    2.9580   -9.7479 C.2       8 UNK         0.4941 
     53 O          30.3397    3.3956  -10.4746 O.2       8 UNK        -0.5273 
     54 N          29.1134    1.6632   -9.6738 N.am      9 UNK        -0.4262 
     55 CA         29.6846    0.5805  -10.4766 C.3       9 UNK         0.0264 
     56 CB         28.5300   -0.1261  -11.2097 C.3       9 UNK        -0.1955 
     57 C          30.4768   -0.4312   -9.6287 C.2       9 UNK         0.5031 
     58 O          31.0411   -1.3675  -10.1970 O.2       9 UNK        -0.5390 
     59 N          30.4854   -0.2631   -8.2989 N.am      10 UNK        -0.4204 
     60 CA         31.1402   -1.1588   -7.3456 C.3       10 UNK         0.0237 
     61 CB         30.7343   -0.7700   -5.9157 C.3       10 UNK        -0.1985 
     62 C          32.6711   -1.1509   -7.4700 C.2       10 UNK         0.4970 
     63 O          33.2749   -0.0756   -7.4549 O.2       10 UNK        -0.4914 
     64 N          33.2518   -2.3564   -7.5091 N.am      11 UNK        -0.4285 
     65 CA         34.6937   -2.6379   -7.4152 C.3       11 UNK         0.1007 
     66 C          35.5365   -1.9951   -8.5608 C.2       11 UNK         0.5703 
     67 N          36.8191   -1.7267   -8.3498 N.am      11 UNK        -0.7361 
     68 O          35.0517   -1.7940   -9.6730 O.2       11 UNK        -0.4986 
     69 C69        35.2446   -2.3780   -5.9798 C.3       12 UNK        -0.0947 
     70 S70        34.2951   -3.2771   -4.7023 S.3       12 UNK        -0.2240 
     71 C71        34.5414   -2.2298   -3.2354 C.3       12 UNK         0.0194 
     72 H72        29.2715   -2.9695   -4.3104 H         1 UNK         0.0906 
     73 H73        30.6138   -3.9690   -3.7320 H         1 UNK         0.0906 
     74 H74        30.3507   -3.7443   -5.4535 H         1 UNK         0.0906 
     75 H75        27.4926   -6.2051   -3.7235 H         1 UNK         0.3140 
     76 H76        26.9203   -5.2076   -1.8917 H         1 UNK         0.1085 
     77 H77        28.1952   -3.5499   -0.6403 H         1 UNK         0.0836 
     78 H78        29.1334   -3.1480   -2.0410 H         1 UNK         0.0836 
     79 H79        31.8726   -4.6469    0.3847 H         1 UNK         0.0731 
     80 H80        30.5145   -3.6489    0.8352 H         1 UNK         0.0731 
     81 H81        33.3783   -3.9818   -1.4938 H         1 UNK         0.1312 
     82 H82        32.7673   -0.1663   -3.3567 H         1 UNK         0.1406 
     83 H83        29.9777   -1.5934   -0.4377 H         1 UNK         0.1631 
     84 H84        30.7665    1.0884   -2.9503 H         1 UNK         0.0717 
     85 H85        30.1449    0.9794   -1.3107 H         1 UNK         0.0717 
     86 H86        26.8670    1.2066   -2.8357 H         1 UNK         0.0934 
     87 H87        28.3424    2.1229   -2.9827 H         1 UNK         0.0934 
     88 H88        28.6017    1.5277   -5.3339 H         1 UNK         0.0739 
     89 H89        26.7893   -0.6235   -4.8642 H         1 UNK         0.3093 
     90 H90        26.0282   -1.2890   -8.2847 H         1 UNK         0.0818 
     91 H91        28.0060   -2.7499   -6.4603 H         1 UNK         0.0819 
     92 H92        27.0801   -3.4933   -7.7607 H         1 UNK         0.0819 
     93 H93        28.2849   -2.2713   -8.1288 H         1 UNK         0.0819 
     94 H94        25.6447   -2.5237   -5.6432 H         1 UNK         0.3041 
     95 H95        22.4150   -1.0903   -5.1854 H         1 UNK         0.0784 
     96 H96        21.9416   -3.0082   -6.7224 H         1 UNK         0.0793 
     97 H97        23.1431   -3.9865   -5.8910 H         1 UNK         0.0793 
     98 H98        21.6883   -3.4572   -5.0444 H         1 UNK         0.0793 
     99 H99        23.8186   -3.0407   -3.6686 H         1 UNK         0.3024 
    100 H100       25.8959   -0.8296   -1.8172 H         1 UNK         0.1171 
    101 H101       24.6281   -1.6500    0.1192 H         1 UNK         0.0786 
    102 H102       23.6174   -0.5523   -0.8024 H         1 UNK         0.0786 
    103 H103       23.3574   -2.2871   -0.9257 H         1 UNK         0.0786 
    104 H104       25.7673   -3.3661   -1.1192 H         1 UNK         0.2977 
    105 H105       25.0672    1.4348   -4.7444 H         1 UNK         0.3127 
    106 H106       24.5298    4.1990   -4.9966 H         1 UNK         0.0770 
    107 H107       22.7648    1.7720   -5.6409 H         1 UNK         0.0814 
    108 H108       22.1845    3.4173   -5.4108 H         1 UNK         0.0814 
    109 H109       22.9166    2.5522   -4.0680 H         1 UNK         0.0814 
    110 H110       24.9367    1.7045   -7.4904 H         1 UNK         0.2983 
    111 H111       24.1702    3.4333   -9.7144 H         1 UNK         0.0947 
    112 H112       24.8552    1.4734  -11.0731 H         1 UNK         0.0806 
    113 H113       23.8210    0.9488   -9.7539 H         1 UNK         0.0806 
    114 H114       25.5639    0.7006   -9.6641 H         1 UNK         0.0806 
    115 H115       26.9521    3.2305   -7.7907 H         1 UNK         0.3000 
    116 H116       29.0610    3.8423   -7.8591 H         1 UNK         0.0850 
    117 H117       29.7808    5.7364   -9.2587 H         1 UNK         0.0810 
    118 H118       28.1668    6.0498   -8.6433 H         1 UNK         0.0810 
    119 H119       28.3929    5.5455  -10.3180 H         1 UNK         0.0810 
    120 H120       28.3839    1.3884   -9.0141 H         1 UNK         0.3040 
    121 H121       30.3731    0.9817  -11.2229 H         1 UNK         0.0766 
    122 H122       27.9740    0.5717  -11.8363 H         1 UNK         0.0812 
    123 H123       27.8271   -0.5793  -10.5092 H         1 UNK         0.0812 
    124 H124       28.9023   -0.9190  -11.8598 H         1 UNK         0.0812 
    125 H125       30.0010    0.5359   -7.9181 H         1 UNK         0.3205 
    126 H126       30.7760   -2.1700   -7.5389 H         1 UNK         0.0754 
    127 H127       31.2632   -1.3781   -5.1812 H         1 UNK         0.0769 
    128 H128       29.6719   -0.9276   -5.7476 H         1 UNK         0.0769 
    129 H129       30.9624    0.2734   -5.6951 H         1 UNK         0.0769 
    130 H130       32.6621   -3.1738   -7.5504 H         1 UNK         0.2981 
    131 H131       34.7797   -3.7095   -7.5973 H         1 UNK         0.0541 
    132 H132       37.3658   -1.3341   -9.1003 H         1 UNK         0.3459 
    133 H133       37.2489   -1.9034   -7.4558 H         1 UNK         0.3459 
    134 H134       35.2298   -1.3081   -5.7666 H         1 UNK         0.0612 
    135 H135       36.2828   -2.7010   -5.8937 H         1 UNK         0.0612 
    136 H136       34.9306   -1.2517   -3.5201 H         1 UNK         0.0624 
    137 H137       35.3013   -2.6847   -2.5985 H         1 UNK         0.0624 
@<TRIPOS>BOND
     1    1    2 1    
     2    1   72 1    
     3    1   73 1    
     4    1   74 1    
     5    2    3 2    
     6    2    4 am   BACKBONE|DICT|INTERRES
     7    4    5 1    
     8    4   75 1    
     9    5    6 1    
    10    5   35 1    
    11    5   76 1    
    12    6    7 1    
    13    6   77 1    
    14    6   78 1    
    15    7    8 1    
    16    8    9 1    
    17    8   79 1    
    18    8   80 1    
    19    9   10 ar   
    20    9   14 ar   
    21   10   11 ar   
    22   10   81 1    
    23   11   12 ar   
    24   11   71 1    
    25   12   13 ar   
    26   12   82 1    
    27   13   14 ar   
    28   13   15 1    
    29   14   83 1    
    30   15   16 1    
    31   15   84 1    
    32   15   85 1    
    33   16   17 1    
    34   17   18 1    
    35   17   86 1    
    36   17   87 1    
    37   18   19 1    
    38   18   37 1    
    39   18   88 1    
    40   19   20 am   BACKBONE|DICT|INTERRES
    41   19   89 1    
    42   20   21 2    
    43   20   22 1    
    44   22   23 1    
    45   22   24 1    
    46   22   90 1    
    47   23   91 1    
    48   23   92 1    
    49   23   93 1    
    50   24   25 am   BACKBONE|DICT|INTERRES
    51   24   94 1    
    52   25   26 2    
    53   25   27 1    
    54   27   28 1    
    55   27   29 1    
    56   27   95 1    
    57   28   96 1    
    58   28   97 1    
    59   28   98 1    
    60   29   30 am   BACKBONE|DICT|INTERRES
    61   29   99 1    
    62   30   31 2    
    63   30   32 1    
    64   32   33 1    
    65   32   34 1    
    66   32  100 1    
    67   33  101 1    
    68   33  102 1    
    69   33  103 1    
    70   34   35 am   BACKBONE|DICT|INTERRES
    71   34  104 1    
    72   35   36 2    
    73   37   38 2    
    74   37   39 am   BACKBONE|DICT|INTERRES
    75   39   40 1    
    76   39  105 1    
    77   40   41 1    
    78   40   42 1    
    79   40  106 1    
    80   41  107 1    
    81   41  108 1    
    82   41  109 1    
    83   42   43 2    
    84   42   44 am   BACKBONE|DICT|INTERRES
    85   44   45 1    
    86   44  110 1    
    87   45   46 1    
    88   45   47 1    
    89   45  111 1    
    90   46  112 1    
    91   46  113 1    
    92   46  114 1    
    93   47   48 2    
    94   47   49 am   BACKBONE|DICT|INTERRES
    95   49   50 1    
    96   49  115 1    
    97   50   51 1    
    98   50   52 1    
    99   50  116 1    
   100   51  117 1    
   101   51  118 1    
   102   51  119 1    
   103   52   53 2    
   104   52   54 am   BACKBONE|DICT|INTERRES
   105   54   55 1    
   106   54  120 1    
   107   55   56 1    
   108   55   57 1    
   109   55  121 1    
   110   56  122 1    
   111   56  123 1    
   112   56  124 1    
   113   57   58 2    
   114   57   59 am   BACKBONE|DICT|INTERRES
   115   59   60 1    
   116   59  125 1    
   117   60   61 1    
   118   60   62 1    
   119   60  126 1    
   120   61  127 1    
   121   61  128 1    
   122   61  129 1    
   123   62   63 2    
   124   62   64 am   BACKBONE|DICT|INTERRES
   125   64   65 1    
   126   64  130 1    
   127   65   66 1    
   128   65   69 1    
   129   65  131 1    
   130   66   67 am   BACKBONE|DICT|INTERRES
   131   66   68 2    
   132   67  132 1    
   133   67  133 1    
   134   69   70 1    
   135   69  134 1    
   136   69  135 1    
   137   70   71 1    
   138   71  136 1    
   139   71  137 1    
@<TRIPOS>SUBSTRUCTURE
     1 UNK         1 GROUP             0       ****    0 ROOT    
