@<TRIPOS>MOLECULE
3R137
137   139    1
SMALL
USER_CHARGES


@<TRIPOS>ATOM
      1 CA         30.6830   -5.6789   -7.1218 C.3       0 UNK        -0.2020 
      2 C          29.5589   -5.9412   -6.1306 C.2       0 UNK         0.4855 
      3 O          28.8668   -6.9525   -6.2417 O.2       0 UNK        -0.5197 
      4 N          29.3728   -5.0341   -5.1625 N.am      1 UNK        -0.4892 
      5 CA         28.3671   -5.1191   -4.0923 C.3       1 UNK         0.0835 
      6 C6         28.6401   -4.0845   -2.9733 C.3       12 UNK        -0.0855 
      7 S7         30.2801   -4.3416   -2.2193 S.3       12 UNK        -0.2931 
      8 C8         30.1936   -3.2403   -0.7714 C.3       12 UNK         0.0378 
      9 C9         30.2489   -1.7617   -1.1397 C.ar      12 UNK        -0.0802 
     10 C10        31.2909   -1.2655   -1.9318 C.ar      12 UNK        -0.0944 
     11 C11        31.3745    0.0984   -2.2234 C.ar      12 UNK        -0.0787 
     12 C12        30.4167    0.9724   -1.7042 C.ar      12 UNK        -0.0862 
     13 C13        29.3662    0.4912   -0.9168 C.ar      12 UNK        -0.0733 
     14 C14        29.2849   -0.8777   -0.6421 C.ar      12 UNK        -0.0832 
     15 C15        28.3413    1.4548   -0.3323 C.3       12 UNK         0.0240 
     16 S16        26.7994    1.5064   -1.3014 S.3       12 UNK        -0.2522 
     17 C17        27.3664    2.2174   -2.8837 C.3       12 UNK        -0.0967 
     18 CA         27.2532    1.1790   -4.0372 C.3       5 UNK         0.0660 
     19 N          25.8688    0.7806   -4.3210 N.am      5 UNK        -0.4015 
     20 C          24.8993    1.5716   -4.8049 C.2       4 UNK         0.4946 
     21 O          25.0535    2.7727   -5.0354 O.2       4 UNK        -0.5353 
     22 CA         23.5322    0.9307   -5.1116 C.3       4 UNK         0.0277 
     23 CB         23.0836    1.2556   -6.5473 C.3       4 UNK        -0.1981 
     24 N          23.5000   -0.5232   -4.9291 N.am      4 UNK        -0.4209 
     25 C          23.3057   -1.1634   -3.7719 C.2       3 UNK         0.4942 
     26 O          23.1981   -0.5880   -2.6893 O.2       3 UNK        -0.5208 
     27 CA         23.2037   -2.7004   -3.8161 C.3       3 UNK         0.0250 
     28 CB         21.7761   -3.1337   -4.2016 C.3       3 UNK        -0.1990 
     29 N          24.2022   -3.4005   -4.6415 N.am      3 UNK        -0.4232 
     30 C          24.4211   -3.3467   -5.9628 C.2       2 UNK         0.4993 
     31 O          23.8335   -2.5709   -6.7183 O.2       2 UNK        -0.5286 
     32 CA         25.4633   -4.3315   -6.5383 C.3       2 UNK         0.0209 
     33 CB         25.8032   -4.0409   -8.0122 C.3       2 UNK        -0.1931 
     34 N          26.7213   -4.4052   -5.7867 N.am      2 UNK        -0.4546 
     35 C          26.9141   -5.0033   -4.6027 C.2       1 UNK         0.5154 
     36 O          25.9962   -5.4608   -3.9204 O.2       1 UNK        -0.5181 
     37 C          27.9583    1.5809   -5.3514 C.2       5 UNK         0.5014 
     38 O          27.7245    0.9256   -6.3696 O.2       5 UNK        -0.5248 
     39 N          28.7903    2.6321   -5.3368 N.am      6 UNK        -0.4434 
     40 CA         29.6205    3.0886   -6.4611 C.3       6 UNK         0.0363 
     41 CB         30.5229    4.2351   -5.9756 C.3       6 UNK        -0.1936 
     42 C          28.8577    3.4994   -7.7374 C.2       6 UNK         0.5081 
     43 O          29.4851    3.6616   -8.7841 O.2       6 UNK        -0.5248 
     44 N          27.5291    3.6486   -7.6485 N.am      7 UNK        -0.4718 
     45 CA         26.6390    3.8436   -8.7931 C.3       7 UNK         0.0273 
     46 CB         25.2812    4.3568   -8.2884 C.3       7 UNK        -0.1935 
     47 C          26.4515    2.5737   -9.6483 C.2       7 UNK         0.5018 
     48 O          26.0213    2.7015  -10.7957 O.2       7 UNK        -0.5186 
     49 N          26.7551    1.3883   -9.0965 N.am      8 UNK        -0.4240 
     50 CA         26.6113    0.0988   -9.7794 C.3       8 UNK         0.0235 
     51 CB         25.3023   -0.5752   -9.3367 C.3       8 UNK        -0.2000 
     52 C          27.8080   -0.8380   -9.5555 C.2       8 UNK         0.4941 
     53 O          28.1832   -1.5535  -10.4855 O.2       8 UNK        -0.5273 
     54 N          28.3785   -0.8473   -8.3438 N.am      9 UNK        -0.4262 
     55 CA         29.5359   -1.6620   -7.9775 C.3       9 UNK         0.0264 
     56 CB         29.6020   -1.7767   -6.4454 C.3       9 UNK        -0.1955 
     57 C          30.8389   -1.0551   -8.5176 C.2       9 UNK         0.5031 
     58 O          30.9621    0.1689   -8.6102 O.2       9 UNK        -0.5390 
     59 N          31.8150   -1.9225   -8.8100 N.am      10 UNK        -0.4204 
     60 CA         33.1569   -1.5640   -9.2751 C.3       10 UNK         0.0237 
     61 CB         33.7600   -2.7673  -10.0241 C.3       10 UNK        -0.1985 
     62 C          34.0533   -1.0728   -8.1199 C.2       10 UNK         0.4970 
     63 O          35.0750   -1.6936   -7.8223 O.2       10 UNK        -0.4914 
     64 N          33.6418    0.0262   -7.4798 N.am      11 UNK        -0.4285 
     65 CA         34.3535    0.6789   -6.3685 C.3       11 UNK         0.1007 
     66 C          35.6546    1.4290   -6.7812 C.2       11 UNK         0.5703 
     67 N          35.9135    1.6649   -8.0615 N.am      11 UNK        -0.7361 
     68 O          36.4495    1.7973   -5.9196 O.2       11 UNK        -0.4986 
     69 C69        33.4141    1.6117   -5.5617 C.3       12 UNK        -0.0947 
     70 S70        31.9981    0.7274   -4.8287 S.3       12 UNK        -0.2240 
     71 C71        32.5040    0.6359   -3.0867 C.3       12 UNK         0.0194 
     72 H72        30.2717   -5.4878   -8.1126 H         1 UNK         0.0906 
     73 H73        31.2937   -4.8250   -6.8309 H         1 UNK         0.0906 
     74 H74        31.3347   -6.5500   -7.1867 H         1 UNK         0.0906 
     75 H75        30.0151   -4.2601   -5.0780 H         1 UNK         0.3140 
     76 H76        28.4495   -6.1160   -3.6528 H         1 UNK         0.1085 
     77 H77        28.5833   -3.0644   -3.3590 H         1 UNK         0.0836 
     78 H78        27.8867   -4.1621   -2.1866 H         1 UNK         0.0836 
     79 H79        29.2930   -3.4715   -0.2005 H         1 UNK         0.0731 
     80 H80        31.0361   -3.4631   -0.1156 H         1 UNK         0.0731 
     81 H81        32.0403   -1.9428   -2.3181 H         1 UNK         0.1312 
     82 H82        30.4964    2.0303   -1.9128 H         1 UNK         0.1406 
     83 H83        28.4794   -1.2484   -0.0223 H         1 UNK         0.1631 
     84 H84        28.7564    2.4613   -0.2591 H         1 UNK         0.0717 
     85 H85        28.1019    1.1544    0.6888 H         1 UNK         0.0717 
     86 H86        26.7740    3.1091   -3.0942 H         1 UNK         0.0934 
     87 H87        28.3887    2.5679   -2.7540 H         1 UNK         0.0934 
     88 H88        27.7693    0.2728   -3.7149 H         1 UNK         0.0739 
     89 H89        25.6535   -0.1948   -4.1855 H         1 UNK         0.3093 
     90 H90        22.8116    1.3801   -4.4253 H         1 UNK         0.0818 
     91 H91        22.1293    0.7851   -6.7843 H         1 UNK         0.0819 
     92 H92        22.9523    2.3297   -6.6820 H         1 UNK         0.0819 
     93 H93        23.8156    0.9220   -7.2822 H         1 UNK         0.0819 
     94 H94        23.5891   -1.1030   -5.7643 H         1 UNK         0.3041 
     95 H95        23.3821   -3.0467   -2.7967 H         1 UNK         0.0784 
     96 H96        21.0376   -2.6790   -3.5399 H         1 UNK         0.0793 
     97 H97        21.5222   -2.8400   -5.2208 H         1 UNK         0.0793 
     98 H98        21.6562   -4.2143   -4.1252 H         1 UNK         0.0793 
     99 H99        24.7644   -4.0854   -4.1401 H         1 UNK         0.3024 
    100 H100       24.9941   -5.3173   -6.5002 H         1 UNK         0.1171 
    101 H101       24.9050   -4.0133   -8.6307 H         1 UNK         0.0786 
    102 H102       26.4530   -4.8107   -8.4286 H         1 UNK         0.0786 
    103 H103       26.3086   -3.0822   -8.1224 H         1 UNK         0.0786 
    104 H104       27.5408   -4.0583   -6.2609 H         1 UNK         0.2977 
    105 H105       28.9049    3.1411   -4.4737 H         1 UNK         0.3127 
    106 H106       30.2591    2.2507   -6.7480 H         1 UNK         0.0770 
    107 H107       29.9397    5.1011   -5.6608 H         1 UNK         0.0814 
    108 H108       31.1956    4.5656   -6.7683 H         1 UNK         0.0814 
    109 H109       31.1461    3.9235   -5.1372 H         1 UNK         0.0814 
    110 H110       27.0883    3.4931   -6.7518 H         1 UNK         0.2983 
    111 H111       27.0739    4.6087   -9.4400 H         1 UNK         0.0947 
    112 H112       24.6015    4.5490   -9.1197 H         1 UNK         0.0806 
    113 H113       25.3886    5.2903   -7.7360 H         1 UNK         0.0806 
    114 H114       24.7974    3.6330   -7.6329 H         1 UNK         0.0806 
    115 H115       27.1175    1.3711   -8.1474 H         1 UNK         0.3000 
    116 H116       26.5561    0.2612  -10.8580 H         1 UNK         0.0850 
    117 H117       25.1662   -1.5347   -9.8370 H         1 UNK         0.0810 
    118 H118       25.2903   -0.7615   -8.2624 H         1 UNK         0.0810 
    119 H119       24.4370    0.0407   -9.5812 H         1 UNK         0.0810 
    120 H120       28.0562   -0.1988   -7.6263 H         1 UNK         0.3040 
    121 H121       29.4043   -2.6609   -8.3987 H         1 UNK         0.0766 
    122 H122       28.6856   -2.1969   -6.0339 H         1 UNK         0.0812 
    123 H123       29.7531   -0.8032   -5.9803 H         1 UNK         0.0812 
    124 H124       30.4328   -2.4084   -6.1312 H         1 UNK         0.0812 
    125 H125       31.6439   -2.9075   -8.6761 H         1 UNK         0.3205 
    126 H126       33.0720   -0.7415   -9.9882 H         1 UNK         0.0754 
    127 H127       34.7509   -2.5295  -10.4121 H         1 UNK         0.0769 
    128 H128       33.1429   -3.0546  -10.8756 H         1 UNK         0.0769 
    129 H129       33.8641   -3.6379   -9.3760 H         1 UNK         0.0769 
    130 H130       32.7597    0.4403   -7.7643 H         1 UNK         0.2981 
    131 H131       34.6796   -0.1128   -5.6910 H         1 UNK         0.0541 
    132 H132       35.2680    1.3712   -8.7762 H         1 UNK         0.3459 
    133 H133       36.7621    2.1472   -8.3126 H         1 UNK         0.3459 
    134 H134       33.0220    2.3991   -6.2076 H         1 UNK         0.0612 
    135 H135       33.9609    2.1209   -4.7662 H         1 UNK         0.0612 
    136 H136       32.7942    1.6277   -2.7366 H         1 UNK         0.0624 
    137 H137       33.3882    0.0027   -3.0001 H         1 UNK         0.0624 
@<TRIPOS>BOND
     1    1    2 1    
     2    1   72 1    
     3    1   73 1    
     4    1   74 1    
     5    2    3 2    
     6    2    4 am   BACKBONE|DICT|INTERRES
     7    4    5 1    
     8    4   75 1    
     9    5    6 1    
    10    5   35 1    
    11    5   76 1    
    12    6    7 1    
    13    6   77 1    
    14    6   78 1    
    15    7    8 1    
    16    8    9 1    
    17    8   79 1    
    18    8   80 1    
    19    9   10 ar   
    20    9   14 ar   
    21   10   11 ar   
    22   10   81 1    
    23   11   12 ar   
    24   11   71 1    
    25   12   13 ar   
    26   12   82 1    
    27   13   14 ar   
    28   13   15 1    
    29   14   83 1    
    30   15   16 1    
    31   15   84 1    
    32   15   85 1    
    33   16   17 1    
    34   17   18 1    
    35   17   86 1    
    36   17   87 1    
    37   18   19 1    
    38   18   37 1    
    39   18   88 1    
    40   19   20 am   BACKBONE|DICT|INTERRES
    41   19   89 1    
    42   20   21 2    
    43   20   22 1    
    44   22   23 1    
    45   22   24 1    
    46   22   90 1    
    47   23   91 1    
    48   23   92 1    
    49   23   93 1    
    50   24   25 am   BACKBONE|DICT|INTERRES
    51   24   94 1    
    52   25   26 2    
    53   25   27 1    
    54   27   28 1    
    55   27   29 1    
    56   27   95 1    
    57   28   96 1    
    58   28   97 1    
    59   28   98 1    
    60   29   30 am   BACKBONE|DICT|INTERRES
    61   29   99 1    
    62   30   31 2    
    63   30   32 1    
    64   32   33 1    
    65   32   34 1    
    66   32  100 1    
    67   33  101 1    
    68   33  102 1    
    69   33  103 1    
    70   34   35 am   BACKBONE|DICT|INTERRES
    71   34  104 1    
    72   35   36 2    
    73   37   38 2    
    74   37   39 am   BACKBONE|DICT|INTERRES
    75   39   40 1    
    76   39  105 1    
    77   40   41 1    
    78   40   42 1    
    79   40  106 1    
    80   41  107 1    
    81   41  108 1    
    82   41  109 1    
    83   42   43 2    
    84   42   44 am   BACKBONE|DICT|INTERRES
    85   44   45 1    
    86   44  110 1    
    87   45   46 1    
    88   45   47 1    
    89   45  111 1    
    90   46  112 1    
    91   46  113 1    
    92   46  114 1    
    93   47   48 2    
    94   47   49 am   BACKBONE|DICT|INTERRES
    95   49   50 1    
    96   49  115 1    
    97   50   51 1    
    98   50   52 1    
    99   50  116 1    
   100   51  117 1    
   101   51  118 1    
   102   51  119 1    
   103   52   53 2    
   104   52   54 am   BACKBONE|DICT|INTERRES
   105   54   55 1    
   106   54  120 1    
   107   55   56 1    
   108   55   57 1    
   109   55  121 1    
   110   56  122 1    
   111   56  123 1    
   112   56  124 1    
   113   57   58 2    
   114   57   59 am   BACKBONE|DICT|INTERRES
   115   59   60 1    
   116   59  125 1    
   117   60   61 1    
   118   60   62 1    
   119   60  126 1    
   120   61  127 1    
   121   61  128 1    
   122   61  129 1    
   123   62   63 2    
   124   62   64 am   BACKBONE|DICT|INTERRES
   125   64   65 1    
   126   64  130 1    
   127   65   66 1    
   128   65   69 1    
   129   65  131 1    
   130   66   67 am   BACKBONE|DICT|INTERRES
   131   66   68 2    
   132   67  132 1    
   133   67  133 1    
   134   69   70 1    
   135   69  134 1    
   136   69  135 1    
   137   70   71 1    
   138   71  136 1    
   139   71  137 1    
@<TRIPOS>SUBSTRUCTURE
     1 UNK         1 GROUP             0       ****    0 ROOT    
