@<TRIPOS>MOLECULE
3R137
137   139    1
SMALL
USER_CHARGES


@<TRIPOS>ATOM
      1 CA         28.7343   -1.8211    1.3310 C.3       0 UNK        -0.2020 
      2 C          27.7597   -2.9934    1.3738 C.2       0 UNK         0.4855 
      3 O          27.3324   -3.3805    2.4596 O.2       0 UNK        -0.5197 
      4 N          27.3685   -3.5889    0.2399 N.am      1 UNK        -0.4892 
      5 CA         27.7388   -3.2449   -1.1408 C.3       1 UNK         0.0835 
      6 C6         28.6299   -4.3369   -1.7945 C.3       12 UNK        -0.0855 
      7 S7         30.2392   -4.4982   -0.9389 S.3       12 UNK        -0.2931 
      8 C8         31.4596   -4.1346   -2.2519 C.3       12 UNK         0.0378 
      9 C9         31.2483   -2.8075   -2.9793 C.ar      12 UNK        -0.0802 
     10 C10        31.4990   -2.7363   -4.3523 C.ar      12 UNK        -0.0944 
     11 C11        31.2853   -1.5480   -5.0642 C.ar      12 UNK        -0.0787 
     12 C12        30.8062   -0.4264   -4.3805 C.ar      12 UNK        -0.0862 
     13 C13        30.5577   -0.4784   -3.0074 C.ar      12 UNK        -0.0733 
     14 C14        30.8117   -1.6611   -2.3083 C.ar      12 UNK        -0.0832 
     15 C15        29.9853    0.7247   -2.2750 C.3       12 UNK         0.0240 
     16 S16        28.2260    0.4504   -1.8991 S.3       12 UNK        -0.2522 
     17 C17        27.3729    1.6770   -2.9406 C.3       12 UNK        -0.0967 
     18 CA         27.4725    1.4484   -4.4728 C.3       5 UNK         0.0660 
     19 N          27.2176    0.0693   -4.8902 N.am      5 UNK        -0.4015 
     20 C          27.5553   -0.4375   -6.0862 C.2       4 UNK         0.4946 
     21 O          28.1819    0.1840   -6.9487 O.2       4 UNK        -0.5353 
     22 CA         27.0800   -1.8696   -6.3876 C.3       4 UNK         0.0277 
     23 CB         28.0922   -2.9017   -5.8714 C.3       4 UNK        -0.1981 
     24 N          25.7608   -2.1568   -5.8191 N.am      4 UNK        -0.4209 
     25 C          24.6264   -1.5744   -6.2356 C.2       3 UNK         0.4942 
     26 O          24.5757   -0.7580   -7.1534 O.2       3 UNK        -0.5208 
     27 CA         23.3330   -1.9159   -5.4789 C.3       3 UNK         0.0250 
     28 CB         22.6397   -3.1264   -6.1231 C.3       3 UNK        -0.1990 
     29 N          23.5237   -2.1676   -4.0497 N.am      3 UNK        -0.4232 
     30 C          24.0944   -1.3318   -3.1706 C.2       2 UNK         0.4993 
     31 O          24.5573   -0.2288   -3.4705 O.2       2 UNK        -0.5286 
     32 CA         24.1902   -1.8187   -1.7135 C.3       2 UNK         0.0209 
     33 CB         23.2532   -3.0040   -1.3859 C.3       2 UNK        -0.1931 
     34 N          25.5616   -2.1495   -1.3091 N.am      2 UNK        -0.4546 
     35 C          26.4404   -2.9594   -1.9246 C.2       1 UNK         0.5154 
     36 O          26.2398   -3.4904   -3.0194 O.2       1 UNK        -0.5181 
     37 C          26.5141    2.4067   -5.2002 C.2       5 UNK         0.5014 
     38 O          26.9608    3.4302   -5.7171 O.2       5 UNK        -0.5248 
     39 N          25.2195    2.0504   -5.2309 N.am      6 UNK        -0.4434 
     40 CA         24.1447    2.8361   -5.8453 C.3       6 UNK         0.0363 
     41 CB         22.7867    2.1911   -5.5287 C.3       6 UNK        -0.1936 
     42 C          24.3152    3.0241   -7.3621 C.2       6 UNK         0.5081 
     43 O          24.1023    4.1291   -7.8615 O.2       6 UNK        -0.5248 
     44 N          24.7214    1.9566   -8.0629 N.am      7 UNK        -0.4718 
     45 CA         25.0518    1.9830   -9.4906 C.3       7 UNK         0.0273 
     46 CB         25.0191    0.5472  -10.0405 C.3       7 UNK        -0.1935 
     47 C          26.4181    2.6268   -9.7873 C.2       7 UNK         0.5018 
     48 O          26.6707    2.9656  -10.9441 O.2       7 UNK        -0.5186 
     49 N          27.2695    2.7584   -8.7565 N.am      8 UNK        -0.4240 
     50 CA         28.6639    3.2120   -8.7934 C.3       8 UNK         0.0235 
     51 CB         28.7457    4.7127   -9.1436 C.3       8 UNK        -0.2000 
     52 C          29.5143    2.3221   -9.7173 C.2       8 UNK         0.4941 
     53 O          30.1508    2.8168  -10.6492 O.2       8 UNK        -0.5273 
     54 N          29.4780    1.0081   -9.4543 N.am      9 UNK        -0.4262 
     55 CA         30.0505   -0.0353  -10.3132 C.3       9 UNK         0.0264 
     56 CB         29.3959   -1.3830   -9.9603 C.3       9 UNK        -0.1955 
     57 C          31.5917   -0.1271  -10.3074 C.2       9 UNK         0.5031 
     58 O          32.1371   -0.9519  -11.0434 O.2       9 UNK        -0.5390 
     59 N          32.2680    0.6981   -9.4924 N.am      10 UNK        -0.4204 
     60 CA         33.7226    0.8433   -9.3075 C.3       10 UNK         0.0237 
     61 CB         34.4343    1.2308  -10.6190 C.3       10 UNK        -0.1985 
     62 C          34.3957   -0.3669   -8.6374 C.2       10 UNK         0.4970 
     63 O          35.1074   -0.1829   -7.6500 O.2       10 UNK        -0.4914 
     64 N          34.1188   -1.5698   -9.1519 N.am      11 UNK        -0.4285 
     65 CA         34.4504   -2.8800   -8.5658 C.3       11 UNK         0.1007 
     66 C          35.9734   -3.1955   -8.4541 C.2       11 UNK         0.5703 
     67 N          36.8422   -2.5123   -9.1901 N.am      11 UNK        -0.7361 
     68 O          36.3760   -4.0948   -7.7194 O.2       11 UNK        -0.4986 
     69 C69        33.6699   -3.1502   -7.2452 C.3       12 UNK        -0.0947 
     70 S70        31.8646   -2.9763   -7.4657 S.3       12 UNK        -0.2240 
     71 C71        31.5334   -1.4185   -6.5670 C.3       12 UNK         0.0194 
     72 H72        29.6727   -2.1148    0.8642 H         1 UNK         0.0906 
     73 H73        28.3103   -0.9788    0.7861 H         1 UNK         0.0906 
     74 H74        28.9635   -1.4786    2.3399 H         1 UNK         0.0906 
     75 H75        26.7082   -4.3510    0.3127 H         1 UNK         0.3140 
     76 H76        28.2951   -2.3112   -1.1717 H         1 UNK         0.1085 
     77 H77        28.8064   -4.1136   -2.8477 H         1 UNK         0.0836 
     78 H78        28.1267   -5.3051   -1.7735 H         1 UNK         0.0836 
     79 H79        31.4397   -4.9616   -2.9637 H         1 UNK         0.0731 
     80 H80        32.4569   -4.1334   -1.8104 H         1 UNK         0.0731 
     81 H81        31.8556   -3.6210   -4.8588 H         1 UNK         0.1312 
     82 H82        30.6144    0.4878   -4.9253 H         1 UNK         0.1406 
     83 H83        30.6339   -1.6957   -1.2437 H         1 UNK         0.1631 
     84 H84        30.1165    1.6387   -2.8558 H         1 UNK         0.0717 
     85 H85        30.5281    0.8749   -1.3407 H         1 UNK         0.0717 
     86 H86        26.3295    1.6715   -2.6180 H         1 UNK         0.0934 
     87 H87        27.7537    2.6676   -2.6839 H         1 UNK         0.0934 
     88 H88        28.4874    1.7040   -4.7828 H         1 UNK         0.0739 
     89 H89        26.6554   -0.4866   -4.2599 H         1 UNK         0.3093 
     90 H90        27.0068   -1.9748   -7.4722 H         1 UNK         0.0818 
     91 H91        29.0339   -2.8184   -6.4112 H         1 UNK         0.0819 
     92 H92        28.3094   -2.7622   -4.8118 H         1 UNK         0.0819 
     93 H93        27.7337   -3.9216   -6.0105 H         1 UNK         0.0819 
     94 H94        25.7279   -2.7860   -5.0238 H         1 UNK         0.3041 
     95 H95        22.6652   -1.0581   -5.5671 H         1 UNK         0.0784 
     96 H96        22.4655   -2.9555   -7.1866 H         1 UNK         0.0793 
     97 H97        23.2410   -4.0321   -6.0327 H         1 UNK         0.0793 
     98 H98        21.6691   -3.3192   -5.6656 H         1 UNK         0.0793 
     99 H99        23.2063   -3.0620   -3.7053 H         1 UNK         0.3024 
    100 H100       23.8772   -0.9718   -1.1002 H         1 UNK         0.1171 
    101 H101       23.2604   -3.2189   -0.3171 H         1 UNK         0.0786 
    102 H102       22.2196   -2.7806   -1.6549 H         1 UNK         0.0786 
    103 H103       23.5457   -3.9193   -1.9021 H         1 UNK         0.0786 
    104 H104       25.8506   -1.7512   -0.4268 H         1 UNK         0.2977 
    105 H105       24.9439    1.2013   -4.7431 H         1 UNK         0.3127 
    106 H106       24.1648    3.8265   -5.3857 H         1 UNK         0.0770 
    107 H107       22.6862    1.2156   -6.0032 H         1 UNK         0.0814 
    108 H108       21.9678    2.8135   -5.8918 H         1 UNK         0.0814 
    109 H109       22.6455    2.0609   -4.4555 H         1 UNK         0.0814 
    110 H110       24.8054    1.0557   -7.5950 H         1 UNK         0.2983 
    111 H111       24.2924    2.5685  -10.0136 H         1 UNK         0.0947 
    112 H112       25.2103    0.5337  -11.1144 H         1 UNK         0.0806 
    113 H113       24.0468    0.0816   -9.8782 H         1 UNK         0.0806 
    114 H114       25.7745   -0.0814   -9.5666 H         1 UNK         0.0806 
    115 H115       26.9411    2.4600   -7.8474 H         1 UNK         0.3000 
    116 H116       29.0580    3.0840   -7.7837 H         1 UNK         0.0850 
    117 H117       29.7742    5.0707   -9.0843 H         1 UNK         0.0810 
    118 H118       28.1529    5.3112   -8.4517 H         1 UNK         0.0810 
    119 H119       28.3889    4.9159  -10.1537 H         1 UNK         0.0810 
    120 H120       28.9533    0.6931   -8.6395 H         1 UNK         0.3040 
    121 H121       29.7716    0.2003  -11.3424 H         1 UNK         0.0766 
    122 H122       28.3196   -1.3531  -10.1307 H         1 UNK         0.0812 
    123 H123       29.5562   -1.6551   -8.9185 H         1 UNK         0.0812 
    124 H124       29.7954   -2.1919  -10.5736 H         1 UNK         0.0812 
    125 H125       31.7050    1.3204   -8.9308 H         1 UNK         0.3205 
    126 H126       33.8420    1.6820   -8.6196 H         1 UNK         0.0754 
    127 H127       34.3817    0.4391  -11.3668 H         1 UNK         0.0769 
    128 H128       35.4905    1.4371  -10.4410 H         1 UNK         0.0769 
    129 H129       33.9975    2.1300  -11.0537 H         1 UNK         0.0769 
    130 H130       33.5018   -1.5885   -9.9607 H         1 UNK         0.2981 
    131 H131       34.0888   -3.6060   -9.2946 H         1 UNK         0.0541 
    132 H132       36.5237   -1.7784   -9.8019 H         1 UNK         0.3459 
    133 H133       37.8245   -2.7273   -9.1233 H         1 UNK         0.3459 
    134 H134       33.8524   -4.1674   -6.8951 H         1 UNK         0.0612 
    135 H135       34.0145   -2.4901   -6.4475 H         1 UNK         0.0612 
    136 H136       30.6587   -0.9538   -7.0203 H         1 UNK         0.0624 
    137 H137       32.3559   -0.7225   -6.7230 H         1 UNK         0.0624 
@<TRIPOS>BOND
     1    1    2 1    
     2    1   72 1    
     3    1   73 1    
     4    1   74 1    
     5    2    3 2    
     6    2    4 am   BACKBONE|DICT|INTERRES
     7    4    5 1    
     8    4   75 1    
     9    5    6 1    
    10    5   35 1    
    11    5   76 1    
    12    6    7 1    
    13    6   77 1    
    14    6   78 1    
    15    7    8 1    
    16    8    9 1    
    17    8   79 1    
    18    8   80 1    
    19    9   10 ar   
    20    9   14 ar   
    21   10   11 ar   
    22   10   81 1    
    23   11   12 ar   
    24   11   71 1    
    25   12   13 ar   
    26   12   82 1    
    27   13   14 ar   
    28   13   15 1    
    29   14   83 1    
    30   15   16 1    
    31   15   84 1    
    32   15   85 1    
    33   16   17 1    
    34   17   18 1    
    35   17   86 1    
    36   17   87 1    
    37   18   19 1    
    38   18   37 1    
    39   18   88 1    
    40   19   20 am   BACKBONE|DICT|INTERRES
    41   19   89 1    
    42   20   21 2    
    43   20   22 1    
    44   22   23 1    
    45   22   24 1    
    46   22   90 1    
    47   23   91 1    
    48   23   92 1    
    49   23   93 1    
    50   24   25 am   BACKBONE|DICT|INTERRES
    51   24   94 1    
    52   25   26 2    
    53   25   27 1    
    54   27   28 1    
    55   27   29 1    
    56   27   95 1    
    57   28   96 1    
    58   28   97 1    
    59   28   98 1    
    60   29   30 am   BACKBONE|DICT|INTERRES
    61   29   99 1    
    62   30   31 2    
    63   30   32 1    
    64   32   33 1    
    65   32   34 1    
    66   32  100 1    
    67   33  101 1    
    68   33  102 1    
    69   33  103 1    
    70   34   35 am   BACKBONE|DICT|INTERRES
    71   34  104 1    
    72   35   36 2    
    73   37   38 2    
    74   37   39 am   BACKBONE|DICT|INTERRES
    75   39   40 1    
    76   39  105 1    
    77   40   41 1    
    78   40   42 1    
    79   40  106 1    
    80   41  107 1    
    81   41  108 1    
    82   41  109 1    
    83   42   43 2    
    84   42   44 am   BACKBONE|DICT|INTERRES
    85   44   45 1    
    86   44  110 1    
    87   45   46 1    
    88   45   47 1    
    89   45  111 1    
    90   46  112 1    
    91   46  113 1    
    92   46  114 1    
    93   47   48 2    
    94   47   49 am   BACKBONE|DICT|INTERRES
    95   49   50 1    
    96   49  115 1    
    97   50   51 1    
    98   50   52 1    
    99   50  116 1    
   100   51  117 1    
   101   51  118 1    
   102   51  119 1    
   103   52   53 2    
   104   52   54 am   BACKBONE|DICT|INTERRES
   105   54   55 1    
   106   54  120 1    
   107   55   56 1    
   108   55   57 1    
   109   55  121 1    
   110   56  122 1    
   111   56  123 1    
   112   56  124 1    
   113   57   58 2    
   114   57   59 am   BACKBONE|DICT|INTERRES
   115   59   60 1    
   116   59  125 1    
   117   60   61 1    
   118   60   62 1    
   119   60  126 1    
   120   61  127 1    
   121   61  128 1    
   122   61  129 1    
   123   62   63 2    
   124   62   64 am   BACKBONE|DICT|INTERRES
   125   64   65 1    
   126   64  130 1    
   127   65   66 1    
   128   65   69 1    
   129   65  131 1    
   130   66   67 am   BACKBONE|DICT|INTERRES
   131   66   68 2    
   132   67  132 1    
   133   67  133 1    
   134   69   70 1    
   135   69  134 1    
   136   69  135 1    
   137   70   71 1    
   138   71  136 1    
   139   71  137 1    
@<TRIPOS>SUBSTRUCTURE
     1 UNK         1 GROUP             0       ****    0 ROOT    
