@<TRIPOS>MOLECULE
3R137
137   139    1
SMALL
USER_CHARGES


@<TRIPOS>ATOM
      1 CA         28.2566   -6.1792    2.2076 C.3       0 UNK        -0.2020 
      2 C          27.4910   -4.8649    2.1843 C.2       0 UNK         0.4855 
      3 O          26.3661   -4.8023    2.6808 O.2       0 UNK        -0.5197 
      4 N          28.0926   -3.8137    1.6130 N.am      1 UNK        -0.4892 
      5 CA         27.5026   -2.4763    1.4638 C.3       1 UNK         0.0835 
      6 C6         28.5781   -1.3969    1.1692 C.3       12 UNK        -0.0855 
      7 S7         29.7435   -1.8510   -0.1640 S.3       12 UNK        -0.2931 
      8 C8         29.1616   -0.7867   -1.5158 C.3       12 UNK         0.0378 
      9 C9         29.6408   -1.3097   -2.8590 C.ar      12 UNK        -0.0802 
     10 C10        30.6993   -0.6961   -3.5335 C.ar      12 UNK        -0.0944 
     11 C11        31.0980   -1.1593   -4.7921 C.ar      12 UNK        -0.0787 
     12 C12        30.4496   -2.2601   -5.3623 C.ar      12 UNK        -0.0862 
     13 C13        29.4047   -2.8931   -4.6838 C.ar      12 UNK        -0.0733 
     14 C14        29.0011   -2.4066   -3.4386 C.ar      12 UNK        -0.0832 
     15 C15        28.7109   -4.1080   -5.2764 C.3       12 UNK         0.0240 
     16 S16        27.0598   -3.6933   -5.9164 S.3       12 UNK        -0.2522 
     17 C17        27.4441   -3.0496   -7.5797 C.3       12 UNK        -0.0967 
     18 CA         26.9881   -1.5926   -7.8321 C.3       5 UNK         0.0660 
     19 N          25.5847   -1.3461   -7.4701 N.am      5 UNK        -0.4015 
     20 C          24.8903   -0.2507   -7.8067 C.2       4 UNK         0.4946 
     21 O          25.3737    0.6843   -8.4465 O.2       4 UNK        -0.5353 
     22 CA         23.4357   -0.1444   -7.3273 C.3       4 UNK         0.0277 
     23 CB         22.5140   -1.1118   -8.0965 C.3       4 UNK        -0.1981 
     24 N          23.2755   -0.2596   -5.8708 N.am      4 UNK        -0.4209 
     25 C          23.4485   -1.3361   -5.0916 C.2       3 UNK         0.4942 
     26 O          23.7975   -2.4426   -5.5096 O.2       3 UNK        -0.5208 
     27 CA         23.1326   -1.1302   -3.6002 C.3       3 UNK         0.0250 
     28 CB         21.6114   -1.0617   -3.3773 C.3       3 UNK        -0.1990 
     29 N          23.6756   -2.2012   -2.7645 N.am      3 UNK        -0.4232 
     30 C          24.9568   -2.3120   -2.3942 C.2       2 UNK         0.4993 
     31 O          25.8386   -1.5119   -2.7130 O.2       2 UNK        -0.5286 
     32 CA         25.2960   -3.5441   -1.5334 C.3       2 UNK         0.0209 
     33 CB         25.6654   -4.7437   -2.4218 C.3       2 UNK        -0.1931 
     34 N          26.3695   -3.3193   -0.5590 N.am      2 UNK        -0.4546 
     35 C          26.3303   -2.4412    0.4555 C.2       1 UNK         0.5154 
     36 O          25.3958   -1.6619    0.6511 O.2       1 UNK        -0.5181 
     37 C          27.9636   -0.5425   -7.2612 C.2       5 UNK         0.5014 
     38 O          28.9669   -0.2441   -7.9117 O.2       5 UNK        -0.5248 
     39 N          27.6041    0.0806   -6.1303 N.am      6 UNK        -0.4434 
     40 CA         28.2842    1.2428   -5.5521 C.3       6 UNK         0.0363 
     41 CB         27.5788    1.6321   -4.2437 C.3       6 UNK        -0.1936 
     42 C          28.3834    2.4593   -6.4955 C.2       6 UNK         0.5081 
     43 O          29.3006    3.2632   -6.3306 O.2       6 UNK        -0.5248 
     44 N          27.4642    2.5668   -7.4654 N.am      7 UNK        -0.4718 
     45 CA         27.4876    3.5689   -8.5299 C.3       7 UNK         0.0273 
     46 CB         26.1144    4.2564   -8.6081 C.3       7 UNK        -0.1935 
     47 C          27.8497    2.9386   -9.8838 C.2       7 UNK         0.5018 
     48 O          28.6378    3.5269  -10.6236 O.2       7 UNK        -0.5186 
     49 N          27.2567    1.7772  -10.2006 N.am      8 UNK        -0.4240 
     50 CA         27.3751    1.1199  -11.5051 C.3       8 UNK         0.0235 
     51 CB         26.2404    0.0968  -11.6785 C.3       8 UNK        -0.2000 
     52 C          28.7448    0.4691  -11.7574 C.2       8 UNK         0.4941 
     53 O          29.2596    0.5847  -12.8705 O.2       8 UNK        -0.5273 
     54 N          29.3097   -0.1992  -10.7417 N.am      9 UNK        -0.4262 
     55 CA         30.6543   -0.7821  -10.7949 C.3       9 UNK         0.0264 
     56 CB         30.7028   -2.0933   -9.9908 C.3       9 UNK        -0.1955 
     57 C          31.6994    0.2147  -10.2758 C.2       9 UNK         0.5031 
     58 O          32.8197    0.2284  -10.7860 O.2       9 UNK        -0.5390 
     59 N          31.3206    1.0251   -9.2748 N.am      10 UNK        -0.4204 
     60 CA         32.0444    2.1624   -8.6816 C.3       10 UNK         0.0237 
     61 CB         32.3109    3.2555   -9.7352 C.3       10 UNK        -0.1985 
     62 C          33.3343    1.8223   -7.9085 C.2       10 UNK         0.4970 
     63 O          33.7158    2.6031   -7.0364 O.2       10 UNK        -0.4914 
     64 N          33.9625    0.6777   -8.2066 N.am      11 UNK        -0.4285 
     65 CA         35.1735    0.1399   -7.5607 C.3       11 UNK         0.1007 
     66 C          36.4677    0.9692   -7.8317 C.2       11 UNK         0.5703 
     67 N          36.5007    1.8307   -8.8422 N.am      11 UNK        -0.7361 
     68 O          37.4724    0.8086   -7.1421 O.2       11 UNK        -0.4986 
     69 C69        34.9658   -0.1843   -6.0502 C.3       12 UNK        -0.0947 
     70 S70        33.6902   -1.4533   -5.7382 S.3       12 UNK        -0.2240 
     71 C71        32.1925   -0.4363   -5.5577 C.3       12 UNK         0.0194 
     72 H72        27.6925   -6.9513    1.6846 H         1 UNK         0.0906 
     73 H73        29.2333   -6.0914    1.7312 H         1 UNK         0.0906 
     74 H74        28.4094   -6.5060    3.2361 H         1 UNK         0.0906 
     75 H75        29.0207   -3.9134    1.2232 H         1 UNK         0.3140 
     76 H76        27.0589   -2.2203    2.4291 H         1 UNK         0.1085 
     77 H77        28.1178   -0.4290    0.9596 H         1 UNK         0.0836 
     78 H78        29.1731   -1.2389    2.0702 H         1 UNK         0.0836 
     79 H79        29.5063    0.2349   -1.3487 H         1 UNK         0.0731 
     80 H80        28.0718   -0.7489   -1.5140 H         1 UNK         0.0731 
     81 H81        31.1934    0.1579   -3.0908 H         1 UNK         0.1312 
     82 H82        30.7580   -2.6166   -6.3354 H         1 UNK         0.1406 
     83 H83        28.1795   -2.8765   -2.9176 H         1 UNK         0.1631 
     84 H84        28.6026   -4.8682   -4.5016 H         1 UNK         0.0717 
     85 H85        29.3155   -4.5652   -6.0611 H         1 UNK         0.0717 
     86 H86        28.5083   -3.1622   -7.7948 H         1 UNK         0.0934 
     87 H87        26.9412   -3.7042   -8.2933 H         1 UNK         0.0934 
     88 H88        27.0382   -1.4543   -8.9125 H         1 UNK         0.0739 
     89 H89        25.1294   -2.0403   -6.8815 H         1 UNK         0.3093 
     90 H90        23.1072    0.8670   -7.5735 H         1 UNK         0.0818 
     91 H91        21.4716   -0.9772   -7.8081 H         1 UNK         0.0819 
     92 H92        22.5777   -0.9347   -9.1710 H         1 UNK         0.0819 
     93 H93        22.7748   -2.1568   -7.9273 H         1 UNK         0.0819 
     94 H94        22.9974    0.5986   -5.4142 H         1 UNK         0.3041 
     95 H95        23.5775   -0.1846   -3.2818 H         1 UNK         0.0784 
     96 H96        21.1635   -0.2410   -3.9392 H         1 UNK         0.0793 
     97 H97        21.1154   -1.9803   -3.6943 H         1 UNK         0.0793 
     98 H98        21.3715   -0.8968   -2.3265 H         1 UNK         0.0793 
     99 H99        23.0302   -2.9342   -2.5092 H         1 UNK         0.3024 
    100 H100       24.4038   -3.8061   -0.9601 H         1 UNK         0.1171 
    101 H101       25.7937   -5.6514   -1.8319 H         1 UNK         0.0786 
    102 H102       24.8841   -4.9441   -3.1566 H         1 UNK         0.0786 
    103 H103       26.5874   -4.5697   -2.9746 H         1 UNK         0.0786 
    104 H104       27.1837   -3.9106   -0.6315 H         1 UNK         0.2977 
    105 H105       26.7813   -0.2497   -5.6475 H         1 UNK         0.3127 
    106 H106       29.3051    0.9405   -5.3198 H         1 UNK         0.0770 
    107 H107       26.5522    1.9553   -4.4199 H         1 UNK         0.0814 
    108 H108       27.5508    0.7969   -3.5438 H         1 UNK         0.0814 
    109 H109       28.1004    2.4522   -3.7487 H         1 UNK         0.0814 
    110 H110       26.7503    1.8504   -7.5417 H         1 UNK         0.2983 
    111 H111       28.2354    4.3361   -8.3168 H         1 UNK         0.0947 
    112 H112       25.8759    4.7669   -7.6749 H         1 UNK         0.0806 
    113 H113       25.3136    3.5445   -8.8132 H         1 UNK         0.0806 
    114 H114       26.0973    5.0058   -9.4007 H         1 UNK         0.0806 
    115 H115       26.5828    1.3772   -9.5491 H         1 UNK         0.3000 
    116 H116       27.2401    1.8880  -12.2702 H         1 UNK         0.0850 
    117 H117       26.2759   -0.3592  -12.6689 H         1 UNK         0.0810 
    118 H118       25.2630    0.5684  -11.5748 H         1 UNK         0.0810 
    119 H119       26.2995   -0.7092  -10.9486 H         1 UNK         0.0810 
    120 H120       28.8559   -0.2058   -9.8343 H         1 UNK         0.3040 
    121 H121       30.9079   -1.0227  -11.8296 H         1 UNK         0.0766 
    122 H122       30.5896   -1.9291   -8.9198 H         1 UNK         0.0812 
    123 H123       31.6601   -2.5957  -10.1353 H         1 UNK         0.0812 
    124 H124       29.9233   -2.7850  -10.3103 H         1 UNK         0.0812 
    125 H125       30.4167    0.8290   -8.8553 H         1 UNK         0.3205 
    126 H126       31.3590    2.5829   -7.9450 H         1 UNK         0.0754 
    127 H127       32.7471    4.1430   -9.2749 H         1 UNK         0.0769 
    128 H128       31.3876    3.5664  -10.2240 H         1 UNK         0.0769 
    129 H129       33.0020    2.9183  -10.5081 H         1 UNK         0.0769 
    130 H130       33.6235    0.1650   -9.0137 H         1 UNK         0.2981 
    131 H131       35.3617   -0.8090   -8.0636 H         1 UNK         0.0541 
    132 H132       35.6924    1.9597   -9.4292 H         1 UNK         0.3459 
    133 H133       37.3441    2.3535   -9.0181 H         1 UNK         0.3459 
    134 H134       34.7427    0.7173   -5.4787 H         1 UNK         0.0612 
    135 H135       35.8879   -0.5796   -5.6213 H         1 UNK         0.0612 
    136 H136       31.8088   -0.1838   -6.5459 H         1 UNK         0.0624 
    137 H137       32.4411    0.5060   -5.0677 H         1 UNK         0.0624 
@<TRIPOS>BOND
     1    1    2 1    
     2    1   72 1    
     3    1   73 1    
     4    1   74 1    
     5    2    3 2    
     6    2    4 am   BACKBONE|DICT|INTERRES
     7    4    5 1    
     8    4   75 1    
     9    5    6 1    
    10    5   35 1    
    11    5   76 1    
    12    6    7 1    
    13    6   77 1    
    14    6   78 1    
    15    7    8 1    
    16    8    9 1    
    17    8   79 1    
    18    8   80 1    
    19    9   10 ar   
    20    9   14 ar   
    21   10   11 ar   
    22   10   81 1    
    23   11   12 ar   
    24   11   71 1    
    25   12   13 ar   
    26   12   82 1    
    27   13   14 ar   
    28   13   15 1    
    29   14   83 1    
    30   15   16 1    
    31   15   84 1    
    32   15   85 1    
    33   16   17 1    
    34   17   18 1    
    35   17   86 1    
    36   17   87 1    
    37   18   19 1    
    38   18   37 1    
    39   18   88 1    
    40   19   20 am   BACKBONE|DICT|INTERRES
    41   19   89 1    
    42   20   21 2    
    43   20   22 1    
    44   22   23 1    
    45   22   24 1    
    46   22   90 1    
    47   23   91 1    
    48   23   92 1    
    49   23   93 1    
    50   24   25 am   BACKBONE|DICT|INTERRES
    51   24   94 1    
    52   25   26 2    
    53   25   27 1    
    54   27   28 1    
    55   27   29 1    
    56   27   95 1    
    57   28   96 1    
    58   28   97 1    
    59   28   98 1    
    60   29   30 am   BACKBONE|DICT|INTERRES
    61   29   99 1    
    62   30   31 2    
    63   30   32 1    
    64   32   33 1    
    65   32   34 1    
    66   32  100 1    
    67   33  101 1    
    68   33  102 1    
    69   33  103 1    
    70   34   35 am   BACKBONE|DICT|INTERRES
    71   34  104 1    
    72   35   36 2    
    73   37   38 2    
    74   37   39 am   BACKBONE|DICT|INTERRES
    75   39   40 1    
    76   39  105 1    
    77   40   41 1    
    78   40   42 1    
    79   40  106 1    
    80   41  107 1    
    81   41  108 1    
    82   41  109 1    
    83   42   43 2    
    84   42   44 am   BACKBONE|DICT|INTERRES
    85   44   45 1    
    86   44  110 1    
    87   45   46 1    
    88   45   47 1    
    89   45  111 1    
    90   46  112 1    
    91   46  113 1    
    92   46  114 1    
    93   47   48 2    
    94   47   49 am   BACKBONE|DICT|INTERRES
    95   49   50 1    
    96   49  115 1    
    97   50   51 1    
    98   50   52 1    
    99   50  116 1    
   100   51  117 1    
   101   51  118 1    
   102   51  119 1    
   103   52   53 2    
   104   52   54 am   BACKBONE|DICT|INTERRES
   105   54   55 1    
   106   54  120 1    
   107   55   56 1    
   108   55   57 1    
   109   55  121 1    
   110   56  122 1    
   111   56  123 1    
   112   56  124 1    
   113   57   58 2    
   114   57   59 am   BACKBONE|DICT|INTERRES
   115   59   60 1    
   116   59  125 1    
   117   60   61 1    
   118   60   62 1    
   119   60  126 1    
   120   61  127 1    
   121   61  128 1    
   122   61  129 1    
   123   62   63 2    
   124   62   64 am   BACKBONE|DICT|INTERRES
   125   64   65 1    
   126   64  130 1    
   127   65   66 1    
   128   65   69 1    
   129   65  131 1    
   130   66   67 am   BACKBONE|DICT|INTERRES
   131   66   68 2    
   132   67  132 1    
   133   67  133 1    
   134   69   70 1    
   135   69  134 1    
   136   69  135 1    
   137   70   71 1    
   138   71  136 1    
   139   71  137 1    
@<TRIPOS>SUBSTRUCTURE
     1 UNK         1 GROUP             0       ****    0 ROOT    
