@<TRIPOS>MOLECULE
3R137
137   139    1
SMALL
USER_CHARGES


@<TRIPOS>ATOM
      1 CA         24.4111   -5.0985   -4.4910 C.3       0 UNK        -0.2020 
      2 C          24.8921   -4.1693   -3.3862 C.2       0 UNK         0.4855 
      3 O          24.2993   -3.1091   -3.1803 O.2       0 UNK        -0.5197 
      4 N          25.9598   -4.5618   -2.6786 N.am      1 UNK        -0.4892 
      5 CA         26.5530   -3.8425   -1.5451 C.3       1 UNK         0.0835 
      6 C6         27.6167   -4.6813   -0.7774 C.3       12 UNK        -0.0855 
      7 S7         28.6593   -5.7904   -1.7923 S.3       12 UNK        -0.2931 
      8 C8         30.3214   -5.0481   -1.6593 C.3       12 UNK         0.0378 
      9 C9         30.5674   -4.0082   -2.7422 C.ar      12 UNK        -0.0802 
     10 C10        30.8980   -2.6900   -2.4105 C.ar      12 UNK        -0.0944 
     11 C11        31.1113   -1.7394   -3.4149 C.ar      12 UNK        -0.0787 
     12 C12        30.9629   -2.1116   -4.7545 C.ar      12 UNK        -0.0862 
     13 C13        30.6510   -3.4295   -5.0991 C.ar      12 UNK        -0.0733 
     14 C14        30.4783   -4.3770   -4.0878 C.ar      12 UNK        -0.0832 
     15 C15        30.4802   -3.8177   -6.5633 C.3       12 UNK         0.0240 
     16 S16        28.8853   -4.6285   -6.9407 S.3       12 UNK        -0.2522 
     17 C17        27.6618   -3.6307   -6.0234 C.3       12 UNK        -0.0967 
     18 CA         27.0770   -2.4484   -6.8290 C.3       5 UNK         0.0660 
     19 N          25.7488   -2.0525   -6.3473 N.am      5 UNK        -0.4015 
     20 C          24.8985   -1.3042   -7.0639 C.2       4 UNK         0.4946 
     21 O          25.1427   -0.8909   -8.1976 O.2       4 UNK        -0.5353 
     22 CA         23.5576   -0.9358   -6.4102 C.3       4 UNK         0.0277 
     23 CB         22.5184   -2.0450   -6.6384 C.3       4 UNK        -0.1981 
     24 N          23.6406   -0.6297   -4.9795 N.am      4 UNK        -0.4209 
     25 C          24.3184    0.3986   -4.4515 C.2       3 UNK         0.4942 
     26 O          25.0667    1.1248   -5.1051 O.2       3 UNK        -0.5208 
     27 CA         24.1198    0.6788   -2.9535 C.3       3 UNK         0.0250 
     28 CB         22.7782    0.1576   -2.3983 C.3       3 UNK        -0.1990 
     29 N          25.2129    0.0707   -2.2047 N.am      3 UNK        -0.4232 
     30 C          26.2673    0.7182   -1.6902 C.2       2 UNK         0.4993 
     31 O          26.3994    1.9418   -1.7338 O.2       2 UNK        -0.5286 
     32 CA         27.3584   -0.1228   -0.9867 C.3       2 UNK         0.0209 
     33 CB         27.6575    0.4216    0.4215 C.3       2 UNK        -0.1931 
     34 N          27.0456   -1.5512   -0.8786 N.am      2 UNK        -0.4546 
     35 C          27.0456   -2.4221   -1.8959 C.2       1 UNK         0.5154 
     36 O          27.3443   -2.1108   -3.0507 O.2       1 UNK        -0.5181 
     37 C          28.0271   -1.2360   -6.8709 C.2       5 UNK         0.5014 
     38 O          28.7446   -1.0628   -7.8573 O.2       5 UNK        -0.5248 
     39 N          27.9730   -0.3833   -5.8356 N.am      6 UNK        -0.4434 
     40 CA         28.6901    0.8927   -5.7820 C.3       6 UNK         0.0363 
     41 CB         28.4948    1.5552   -4.4131 C.3       6 UNK        -0.1936 
     42 C          28.2638    1.8530   -6.9005 C.2       6 UNK         0.5081 
     43 O          29.1295    2.4383   -7.5457 O.2       6 UNK        -0.5248 
     44 N          26.9509    1.9673   -7.1426 N.am      7 UNK        -0.4718 
     45 CA         26.3814    2.7686   -8.2295 C.3       7 UNK         0.0273 
     46 CB         24.8495    2.7856   -8.1081 C.3       7 UNK        -0.1935 
     47 C          26.8127    2.2906   -9.6282 C.2       7 UNK         0.5018 
     48 O          27.0443    3.1257  -10.5034 O.2       7 UNK        -0.5186 
     49 N          26.9215    0.9675   -9.8089 N.am      8 UNK        -0.4240 
     50 CA         27.3650    0.3374  -11.0507 C.3       8 UNK         0.0235 
     51 CB         26.9290   -1.1377  -11.0634 C.3       8 UNK        -0.2000 
     52 C          28.8809    0.4602  -11.2797 C.2       8 UNK         0.4941 
     53 O          29.2921    0.8988  -12.3548 O.2       8 UNK        -0.5273 
     54 N          29.6825    0.0343  -10.2937 N.am      9 UNK        -0.4262 
     55 CA         31.1274   -0.1719  -10.4467 C.3       9 UNK         0.0264 
     56 CB         31.5112   -1.4663   -9.7089 C.3       9 UNK        -0.1955 
     57 C          31.9955    0.9882   -9.9334 C.2       9 UNK         0.5031 
     58 O          33.2180    0.9069  -10.0686 O.2       9 UNK        -0.5390 
     59 N          31.3933    1.9976   -9.2843 N.am      10 UNK        -0.4204 
     60 CA         32.0551    3.1037   -8.5672 C.3       10 UNK         0.0237 
     61 CB         32.8487    4.0029   -9.5399 C.3       10 UNK        -0.1985 
     62 C          32.9086    2.6333   -7.3672 C.2       10 UNK         0.4970 
     63 O          33.7676    3.3826   -6.8997 O.2       10 UNK        -0.4914 
     64 N          32.6686    1.3964   -6.9069 N.am      11 UNK        -0.4285 
     65 CA         33.4789    0.6529   -5.9309 C.3       11 UNK         0.1007 
     66 C          34.9346    0.3431   -6.4042 C.2       11 UNK         0.5703 
     67 N          35.2189    0.3549   -7.7032 N.am      11 UNK        -0.7361 
     68 O          35.8148    0.0601   -5.5952 O.2       11 UNK        -0.4986 
     69 C69        33.3743    1.2502   -4.4960 C.3       12 UNK        -0.0947 
     70 S70        33.2852   -0.0339   -3.1978 S.3       12 UNK        -0.2240 
     71 C71        31.4892   -0.3096   -3.0554 C.3       12 UNK         0.0194 
     72 H72        23.3796   -5.3956   -4.3038 H         1 UNK         0.0906 
     73 H73        25.0162   -6.0028   -4.5547 H         1 UNK         0.0906 
     74 H74        24.4486   -4.5980   -5.4572 H         1 UNK         0.0906 
     75 H75        26.4379   -5.4190   -2.9201 H         1 UNK         0.3140 
     76 H76        25.7228   -3.6890   -0.8512 H         1 UNK         0.1085 
     77 H77        28.2474   -4.0517   -0.1467 H         1 UNK         0.0836 
     78 H78        27.0927   -5.3316   -0.0750 H         1 UNK         0.0836 
     79 H79        30.4687   -4.6302   -0.6624 H         1 UNK         0.0731 
     80 H80        31.0637   -5.8401   -1.7681 H         1 UNK         0.0731 
     81 H81        30.9906   -2.4026   -1.3721 H         1 UNK         0.1312 
     82 H82        31.0863   -1.3732   -5.5321 H         1 UNK         0.1406 
     83 H83        30.2302   -5.3971   -4.3484 H         1 UNK         0.1631 
     84 H84        30.5732   -2.9419   -7.2030 H         1 UNK         0.0717 
     85 H85        31.2913   -4.4887   -6.8486 H         1 UNK         0.0717 
     86 H86        26.8631   -4.3269   -5.7717 H         1 UNK         0.0934 
     87 H87        28.0631   -3.3078   -5.0661 H         1 UNK         0.0934 
     88 H88        26.9476   -2.7868   -7.8597 H         1 UNK         0.0739 
     89 H89        25.4981   -2.3070   -5.4022 H         1 UNK         0.3093 
     90 H90        23.1982   -0.0345   -6.9112 H         1 UNK         0.0818 
     91 H91        21.5266   -1.7303   -6.3132 H         1 UNK         0.0819 
     92 H92        22.4433   -2.2996   -7.6967 H         1 UNK         0.0819 
     93 H93        22.7723   -2.9576   -6.0994 H         1 UNK         0.0819 
     94 H94        23.1049   -1.2180   -4.3557 H         1 UNK         0.3041 
     95 H95        24.1294    1.7639   -2.8307 H         1 UNK         0.0784 
     96 H96        21.9365    0.5344   -2.9815 H         1 UNK         0.0793 
     97 H97        22.7226   -0.9317   -2.3944 H         1 UNK         0.0793 
     98 H98        22.6292    0.4931   -1.3718 H         1 UNK         0.0793 
     99 H99        25.2134   -0.9396   -2.1703 H         1 UNK         0.3024 
    100 H100       28.2685   -0.0274   -1.5808 H         1 UNK         0.1171 
    101 H101       28.4641   -0.1345    0.8999 H         1 UNK         0.0786 
    102 H102       27.9708    1.4659    0.3818 H         1 UNK         0.0786 
    103 H103       26.7811    0.3691    1.0685 H         1 UNK         0.0786 
    104 H104       26.7653   -1.8725    0.0375 H         1 UNK         0.2977 
    105 H105       27.3746   -0.6074   -5.0519 H         1 UNK         0.3127 
    106 H106       29.7523    0.6786   -5.9113 H         1 UNK         0.0770 
    107 H107       27.4690    1.8944   -4.2692 H         1 UNK         0.0814 
    108 H108       29.1410    2.4276   -4.3078 H         1 UNK         0.0814 
    109 H109       28.7346    0.8705   -3.6039 H         1 UNK         0.0814 
    110 H110       26.2959    1.4977   -6.5210 H         1 UNK         0.2983 
    111 H111       26.7450    3.7912   -8.1078 H         1 UNK         0.0947 
    112 H112       24.4035    3.4121   -8.8815 H         1 UNK         0.0806 
    113 H113       24.5323    3.1836   -7.1440 H         1 UNK         0.0806 
    114 H114       24.4261    1.7865   -8.2126 H         1 UNK         0.0806 
    115 H115       26.6522    0.3509   -9.0498 H         1 UNK         0.3000 
    116 H116       26.8641    0.8378  -11.8825 H         1 UNK         0.0850 
    117 H117       25.8445   -1.2288  -10.9986 H         1 UNK         0.0810 
    118 H118       27.3581   -1.6966  -10.2310 H         1 UNK         0.0810 
    119 H119       27.2418   -1.6307  -11.9848 H         1 UNK         0.0810 
    120 H120       29.2640   -0.3137   -9.4304 H         1 UNK         0.3040 
    121 H121       31.3688   -0.3089  -11.5030 H         1 UNK         0.0766 
    122 H122       30.8952   -2.3075  -10.0276 H         1 UNK         0.0812 
    123 H123       31.3990   -1.3560   -8.6308 H         1 UNK         0.0812 
    124 H124       32.5508   -1.7355   -9.9010 H         1 UNK         0.0812 
    125 H125       30.3871    1.9574   -9.1538 H         1 UNK         0.3205 
    126 H126       31.2604    3.7181   -8.1440 H         1 UNK         0.0754 
    127 H127       33.7283    3.4967   -9.9386 H         1 UNK         0.0769 
    128 H128       33.1966    4.9077   -9.0400 H         1 UNK         0.0769 
    129 H129       32.2315    4.3173  -10.3815 H         1 UNK         0.0769 
    130 H130       31.9413    0.8693   -7.3641 H         1 UNK         0.2981 
    131 H131       33.0136   -0.3305   -5.9128 H         1 UNK         0.0541 
    132 H132       34.5139    0.5791   -8.3952 H         1 UNK         0.3459 
    133 H133       36.1588    0.1447   -7.9989 H         1 UNK         0.3459 
    134 H134       32.4945    1.8885   -4.4030 H         1 UNK         0.0612 
    135 H135       34.2205    1.9064   -4.2848 H         1 UNK         0.0612 
    136 H136       30.9555    0.3791   -3.7067 H         1 UNK         0.0624 
    137 H137       31.1733   -0.0749   -2.0378 H         1 UNK         0.0624 
@<TRIPOS>BOND
     1    1    2 1    
     2    1   72 1    
     3    1   73 1    
     4    1   74 1    
     5    2    3 2    
     6    2    4 am   BACKBONE|DICT|INTERRES
     7    4    5 1    
     8    4   75 1    
     9    5    6 1    
    10    5   35 1    
    11    5   76 1    
    12    6    7 1    
    13    6   77 1    
    14    6   78 1    
    15    7    8 1    
    16    8    9 1    
    17    8   79 1    
    18    8   80 1    
    19    9   10 ar   
    20    9   14 ar   
    21   10   11 ar   
    22   10   81 1    
    23   11   12 ar   
    24   11   71 1    
    25   12   13 ar   
    26   12   82 1    
    27   13   14 ar   
    28   13   15 1    
    29   14   83 1    
    30   15   16 1    
    31   15   84 1    
    32   15   85 1    
    33   16   17 1    
    34   17   18 1    
    35   17   86 1    
    36   17   87 1    
    37   18   19 1    
    38   18   37 1    
    39   18   88 1    
    40   19   20 am   BACKBONE|DICT|INTERRES
    41   19   89 1    
    42   20   21 2    
    43   20   22 1    
    44   22   23 1    
    45   22   24 1    
    46   22   90 1    
    47   23   91 1    
    48   23   92 1    
    49   23   93 1    
    50   24   25 am   BACKBONE|DICT|INTERRES
    51   24   94 1    
    52   25   26 2    
    53   25   27 1    
    54   27   28 1    
    55   27   29 1    
    56   27   95 1    
    57   28   96 1    
    58   28   97 1    
    59   28   98 1    
    60   29   30 am   BACKBONE|DICT|INTERRES
    61   29   99 1    
    62   30   31 2    
    63   30   32 1    
    64   32   33 1    
    65   32   34 1    
    66   32  100 1    
    67   33  101 1    
    68   33  102 1    
    69   33  103 1    
    70   34   35 am   BACKBONE|DICT|INTERRES
    71   34  104 1    
    72   35   36 2    
    73   37   38 2    
    74   37   39 am   BACKBONE|DICT|INTERRES
    75   39   40 1    
    76   39  105 1    
    77   40   41 1    
    78   40   42 1    
    79   40  106 1    
    80   41  107 1    
    81   41  108 1    
    82   41  109 1    
    83   42   43 2    
    84   42   44 am   BACKBONE|DICT|INTERRES
    85   44   45 1    
    86   44  110 1    
    87   45   46 1    
    88   45   47 1    
    89   45  111 1    
    90   46  112 1    
    91   46  113 1    
    92   46  114 1    
    93   47   48 2    
    94   47   49 am   BACKBONE|DICT|INTERRES
    95   49   50 1    
    96   49  115 1    
    97   50   51 1    
    98   50   52 1    
    99   50  116 1    
   100   51  117 1    
   101   51  118 1    
   102   51  119 1    
   103   52   53 2    
   104   52   54 am   BACKBONE|DICT|INTERRES
   105   54   55 1    
   106   54  120 1    
   107   55   56 1    
   108   55   57 1    
   109   55  121 1    
   110   56  122 1    
   111   56  123 1    
   112   56  124 1    
   113   57   58 2    
   114   57   59 am   BACKBONE|DICT|INTERRES
   115   59   60 1    
   116   59  125 1    
   117   60   61 1    
   118   60   62 1    
   119   60  126 1    
   120   61  127 1    
   121   61  128 1    
   122   61  129 1    
   123   62   63 2    
   124   62   64 am   BACKBONE|DICT|INTERRES
   125   64   65 1    
   126   64  130 1    
   127   65   66 1    
   128   65   69 1    
   129   65  131 1    
   130   66   67 am   BACKBONE|DICT|INTERRES
   131   66   68 2    
   132   67  132 1    
   133   67  133 1    
   134   69   70 1    
   135   69  134 1    
   136   69  135 1    
   137   70   71 1    
   138   71  136 1    
   139   71  137 1    
@<TRIPOS>SUBSTRUCTURE
     1 UNK         1 GROUP             0       ****    0 ROOT    
