@<TRIPOS>MOLECULE
3R137
137   139    1
SMALL
USER_CHARGES


@<TRIPOS>ATOM
      1 CA         25.9144   -6.1597   -3.3613 C.3       0 UNK        -0.2020 
      2 C          25.7355   -4.9361   -2.4756 C.2       0 UNK         0.4855 
      3 O          24.6266   -4.4154   -2.3665 O.2       0 UNK        -0.5197 
      4 N          26.8160   -4.4849   -1.8292 N.am      1 UNK        -0.4892 
      5 CA         26.8551   -3.2914   -0.9796 C.3       1 UNK         0.0835 
      6 C6         28.0759   -3.2900   -0.0090 C.3       12 UNK        -0.0855 
      7 S7         29.6425   -3.9592   -0.6757 S.3       12 UNK        -0.2931 
      8 C8         30.3014   -2.5515   -1.6333 C.3       12 UNK         0.0378 
      9 C9         30.7692   -2.9672   -3.0264 C.ar      12 UNK        -0.0802 
     10 C10        31.9848   -2.4941   -3.5306 C.ar      12 UNK        -0.0944 
     11 C11        32.4425   -2.9069   -4.7864 C.ar      12 UNK        -0.0787 
     12 C12        31.6709   -3.7928   -5.5466 C.ar      12 UNK        -0.0862 
     13 C13        30.4538   -4.2737   -5.0556 C.ar      12 UNK        -0.0733 
     14 C14        30.0030   -3.8392   -3.8077 C.ar      12 UNK        -0.0832 
     15 C15        29.6693   -5.3281   -5.8270 C.3       12 UNK         0.0240 
     16 S16        28.5630   -4.6231   -7.0854 S.3       12 UNK        -0.2522 
     17 C17        27.2057   -3.9313   -6.0752 C.3       12 UNK        -0.0967 
     18 CA         26.6231   -2.6320   -6.6776 C.3       5 UNK         0.0660 
     19 N          25.4193   -2.1736   -5.9874 N.am      5 UNK        -0.4015 
     20 C          24.1716   -2.4455   -6.3924 C.2       4 UNK         0.4946 
     21 O          23.9054   -3.1938   -7.3344 O.2       4 UNK        -0.5353 
     22 CA         23.0102   -1.7678   -5.6435 C.3       4 UNK         0.0277 
     23 CB         22.3425   -2.7482   -4.6674 C.3       4 UNK        -0.1981 
     24 N          23.3919   -0.5552   -4.9176 N.am      4 UNK        -0.4209 
     25 C          23.7317    0.6138   -5.4721 C.2       3 UNK         0.4942 
     26 O          23.7987    0.7992   -6.6865 O.2       3 UNK        -0.5208 
     27 CA         24.0712    1.7710   -4.5144 C.3       3 UNK         0.0250 
     28 CB         22.7949    2.3704   -3.8914 C.3       3 UNK        -0.1990 
     29 N          25.0742    1.4448   -3.4874 N.am      3 UNK        -0.4232 
     30 C          24.9847    0.5632   -2.4808 C.2       2 UNK         0.4993 
     31 O          23.9902   -0.1285   -2.2477 O.2       2 UNK        -0.5286 
     32 CA         26.2140    0.4518   -1.5683 C.3       2 UNK         0.0209 
     33 CB         26.0930    1.4252   -0.3847 C.3       2 UNK        -0.1931 
     34 N          26.3876   -0.9054   -1.0540 N.am      2 UNK        -0.4546 
     35 C          26.7419   -1.9740   -1.7814 C.2       1 UNK         0.5154 
     36 O          27.0099   -1.9286   -2.9898 O.2       1 UNK        -0.5181 
     37 C          27.6449   -1.4913   -6.7664 C.2       5 UNK         0.5014 
     38 O          28.0381   -1.1467   -7.8812 O.2       5 UNK        -0.5248 
     39 N          28.0502   -0.9150   -5.6214 N.am      6 UNK        -0.4434 
     40 CA         29.1696    0.0372   -5.5323 C.3       6 UNK         0.0363 
     41 CB         29.3183    0.5455   -4.0930 C.3       6 UNK        -0.1936 
     42 C          29.0966    1.2406   -6.4881 C.2       6 UNK         0.5081 
     43 O          30.1242    1.6274   -7.0410 O.2       6 UNK        -0.5248 
     44 N          27.8925    1.7946   -6.6867 N.am      7 UNK        -0.4718 
     45 CA         27.6562    2.9293   -7.5850 C.3       7 UNK         0.0273 
     46 CB         26.2909    3.5603   -7.2725 C.3       7 UNK        -0.1935 
     47 C          27.7489    2.5574   -9.0750 C.2       7 UNK         0.5018 
     48 O          28.1571    3.3975   -9.8767 O.2       7 UNK        -0.5186 
     49 N          27.3846    1.3145   -9.4192 N.am      8 UNK        -0.4240 
     50 CA         27.4886    0.7685  -10.7742 C.3       8 UNK         0.0235 
     51 CB         26.4969   -0.3951  -10.9406 C.3       8 UNK        -0.2000 
     52 C          28.9230    0.3148  -11.0829 C.2       8 UNK         0.4941 
     53 O          29.4105    0.5473  -12.1894 O.2       8 UNK        -0.5273 
     54 N          29.5781   -0.2999  -10.0888 N.am      9 UNK        -0.4262 
     55 CA         30.9752   -0.7347  -10.1363 C.3       9 UNK         0.0264 
     56 CB         31.2120   -1.7349   -8.9931 C.3       9 UNK        -0.1955 
     57 C          31.9882    0.4266  -10.0680 C.2       9 UNK         0.5031 
     58 O          33.1479    0.2235  -10.4302 O.2       9 UNK        -0.5390 
     59 N          31.5370    1.6050   -9.6098 N.am      10 UNK        -0.4204 
     60 CA         32.2993    2.8359   -9.3640 C.3       10 UNK         0.0237 
     61 CB         32.8949    3.4016  -10.6712 C.3       10 UNK        -0.1985 
     62 C          33.3378    2.6631   -8.2382 C.2       10 UNK         0.4970 
     63 O          34.4647    3.1505   -8.3496 O.2       10 UNK        -0.4914 
     64 N          32.9290    1.9630   -7.1760 N.am      11 UNK        -0.4285 
     65 CA         33.7254    1.6921   -5.9749 C.3       11 UNK         0.1007 
     66 C          33.6229    2.8520   -4.9503 C.2       11 UNK         0.5703 
     67 N          34.6469    3.0416   -4.1293 N.am      11 UNK        -0.7361 
     68 O          32.6198    3.5590   -4.8666 O.2       11 UNK        -0.4986 
     69 C69        33.3221    0.3398   -5.3338 C.3       12 UNK        -0.0947 
     70 S70        33.6526   -1.0556   -6.4589 S.3       12 UNK        -0.2240 
     71 C71        33.7986   -2.4457   -5.2996 C.3       12 UNK         0.0194 
     72 H72        25.3631   -6.0352   -4.2927 H         1 UNK         0.0906 
     73 H73        26.9616   -6.3330   -3.6080 H         1 UNK         0.0906 
     74 H74        25.5293   -7.0455   -2.8569 H         1 UNK         0.0906 
     75 H75        27.7006   -4.9635   -1.9202 H         1 UNK         0.3140 
     76 H76        25.9569   -3.3288   -0.3579 H         1 UNK         0.1085 
     77 H77        28.2617   -2.3033    0.4202 H         1 UNK         0.0836 
     78 H78        27.8257   -3.9182    0.8475 H         1 UNK         0.0836 
     79 H79        29.5493   -1.7720   -1.7266 H         1 UNK         0.0731 
     80 H80        31.1247   -2.1123   -1.0679 H         1 UNK         0.0731 
     81 H81        32.5883   -1.8210   -2.9371 H         1 UNK         0.1312 
     82 H82        32.0319   -4.1293   -6.5090 H         1 UNK         0.1406 
     83 H83        29.0675   -4.2135   -3.4228 H         1 UNK         0.1631 
     84 H84        29.0889   -5.9508   -5.1445 H         1 UNK         0.0717 
     85 H85        30.3678   -6.0032   -6.3235 H         1 UNK         0.0717 
     86 H86        26.4232   -4.6888   -6.0219 H         1 UNK         0.0934 
     87 H87        27.5302   -3.7622   -5.0498 H         1 UNK         0.0934 
     88 H88        26.3563   -2.8554   -7.7136 H         1 UNK         0.0739 
     89 H89        25.5501   -1.5663   -5.1915 H         1 UNK         0.3093 
     90 H90        22.2709   -1.4847   -6.3959 H         1 UNK         0.0818 
     91 H91        21.4362   -2.3224   -4.2366 H         1 UNK         0.0819 
     92 H92        22.0581   -3.6739   -5.1698 H         1 UNK         0.0819 
     93 H93        23.0094   -3.0119   -3.8471 H         1 UNK         0.0819 
     94 H94        23.4048   -0.6028   -3.8991 H         1 UNK         0.3041 
     95 H95        24.5213    2.5547   -5.1241 H         1 UNK         0.0784 
     96 H96        22.0980    2.6911   -4.6670 H         1 UNK         0.0793 
     97 H97        22.2677    1.6541   -3.2607 H         1 UNK         0.0793 
     98 H98        23.0253    3.2447   -3.2826 H         1 UNK         0.0793 
     99 H99        25.9317    1.9737   -3.5633 H         1 UNK         0.3024 
    100 H100       27.1069    0.7066   -2.1374 H         1 UNK         0.1171 
    101 H101       26.9741    1.3839    0.2562 H         1 UNK         0.0786 
    102 H102       25.2191    1.2061    0.2305 H         1 UNK         0.0786 
    103 H103       25.9958    2.4550   -0.7315 H         1 UNK         0.0786 
    104 H104       26.1585   -1.0382   -0.0798 H         1 UNK         0.2977 
    105 H105       27.7071   -1.2839   -4.7379 H         1 UNK         0.3127 
    106 H106       30.0701   -0.5265   -5.7858 H         1 UNK         0.0770 
    107 H107       28.4948    1.2014   -3.8161 H         1 UNK         0.0814 
    108 H108       30.2368    1.1224   -3.9771 H         1 UNK         0.0814 
    109 H109       29.3599   -0.2752   -3.3815 H         1 UNK         0.0814 
    110 H110       27.0921    1.3955   -6.2205 H         1 UNK         0.2983 
    111 H111       28.4262    3.6800   -7.3911 H         1 UNK         0.0947 
    112 H112       26.1079    4.4259   -7.9110 H         1 UNK         0.0806 
    113 H113       26.2413    3.9079   -6.2408 H         1 UNK         0.0806 
    114 H114       25.4733    2.8581   -7.4382 H         1 UNK         0.0806 
    115 H115       27.1389    0.6618   -8.6856 H         1 UNK         0.3000 
    116 H116       27.2200    1.5476  -11.4913 H         1 UNK         0.0850 
    117 H117       26.5382   -0.7986  -11.9531 H         1 UNK         0.0810 
    118 H118       25.4717   -0.0698  -10.7631 H         1 UNK         0.0810 
    119 H119       26.7107   -1.2157  -10.2546 H         1 UNK         0.0810 
    120 H120       29.0661   -0.5114   -9.2327 H         1 UNK         0.3040 
    121 H121       31.1378   -1.2532  -11.0834 H         1 UNK         0.0766 
    122 H122       32.2351   -2.1124   -9.0078 H         1 UNK         0.0812 
    123 H123       30.5472   -2.5955   -9.0712 H         1 UNK         0.0812 
    124 H124       31.0450   -1.2758   -8.0180 H         1 UNK         0.0812 
    125 H125       30.5858    1.6198   -9.2649 H         1 UNK         0.3205 
    126 H126       31.5761    3.5642   -8.9937 H         1 UNK         0.0754 
    127 H127       33.3363    4.3849  -10.5045 H         1 UNK         0.0769 
    128 H128       32.1284    3.5164  -11.4378 H         1 UNK         0.0769 
    129 H129       33.6787    2.7591  -11.0733 H         1 UNK         0.0769 
    130 H130       31.9510    1.6856   -7.1321 H         1 UNK         0.2981 
    131 H131       34.7734    1.6174   -6.2729 H         1 UNK         0.0541 
    132 H132       34.5963    3.7824   -3.4475 H         1 UNK         0.3459 
    133 H133       35.4717    2.4641   -4.1806 H         1 UNK         0.3459 
    134 H134       32.2651    0.3324   -5.0670 H         1 UNK         0.0612 
    135 H135       33.8781    0.1764   -4.4090 H         1 UNK         0.0612 
    136 H136       34.2911   -3.2730   -5.8125 H         1 UNK         0.0624 
    137 H137       34.4553   -2.1708   -4.4728 H         1 UNK         0.0624 
@<TRIPOS>BOND
     1    1    2 1    
     2    1   72 1    
     3    1   73 1    
     4    1   74 1    
     5    2    3 2    
     6    2    4 am   BACKBONE|DICT|INTERRES
     7    4    5 1    
     8    4   75 1    
     9    5    6 1    
    10    5   35 1    
    11    5   76 1    
    12    6    7 1    
    13    6   77 1    
    14    6   78 1    
    15    7    8 1    
    16    8    9 1    
    17    8   79 1    
    18    8   80 1    
    19    9   10 ar   
    20    9   14 ar   
    21   10   11 ar   
    22   10   81 1    
    23   11   12 ar   
    24   11   71 1    
    25   12   13 ar   
    26   12   82 1    
    27   13   14 ar   
    28   13   15 1    
    29   14   83 1    
    30   15   16 1    
    31   15   84 1    
    32   15   85 1    
    33   16   17 1    
    34   17   18 1    
    35   17   86 1    
    36   17   87 1    
    37   18   19 1    
    38   18   37 1    
    39   18   88 1    
    40   19   20 am   BACKBONE|DICT|INTERRES
    41   19   89 1    
    42   20   21 2    
    43   20   22 1    
    44   22   23 1    
    45   22   24 1    
    46   22   90 1    
    47   23   91 1    
    48   23   92 1    
    49   23   93 1    
    50   24   25 am   BACKBONE|DICT|INTERRES
    51   24   94 1    
    52   25   26 2    
    53   25   27 1    
    54   27   28 1    
    55   27   29 1    
    56   27   95 1    
    57   28   96 1    
    58   28   97 1    
    59   28   98 1    
    60   29   30 am   BACKBONE|DICT|INTERRES
    61   29   99 1    
    62   30   31 2    
    63   30   32 1    
    64   32   33 1    
    65   32   34 1    
    66   32  100 1    
    67   33  101 1    
    68   33  102 1    
    69   33  103 1    
    70   34   35 am   BACKBONE|DICT|INTERRES
    71   34  104 1    
    72   35   36 2    
    73   37   38 2    
    74   37   39 am   BACKBONE|DICT|INTERRES
    75   39   40 1    
    76   39  105 1    
    77   40   41 1    
    78   40   42 1    
    79   40  106 1    
    80   41  107 1    
    81   41  108 1    
    82   41  109 1    
    83   42   43 2    
    84   42   44 am   BACKBONE|DICT|INTERRES
    85   44   45 1    
    86   44  110 1    
    87   45   46 1    
    88   45   47 1    
    89   45  111 1    
    90   46  112 1    
    91   46  113 1    
    92   46  114 1    
    93   47   48 2    
    94   47   49 am   BACKBONE|DICT|INTERRES
    95   49   50 1    
    96   49  115 1    
    97   50   51 1    
    98   50   52 1    
    99   50  116 1    
   100   51  117 1    
   101   51  118 1    
   102   51  119 1    
   103   52   53 2    
   104   52   54 am   BACKBONE|DICT|INTERRES
   105   54   55 1    
   106   54  120 1    
   107   55   56 1    
   108   55   57 1    
   109   55  121 1    
   110   56  122 1    
   111   56  123 1    
   112   56  124 1    
   113   57   58 2    
   114   57   59 am   BACKBONE|DICT|INTERRES
   115   59   60 1    
   116   59  125 1    
   117   60   61 1    
   118   60   62 1    
   119   60  126 1    
   120   61  127 1    
   121   61  128 1    
   122   61  129 1    
   123   62   63 2    
   124   62   64 am   BACKBONE|DICT|INTERRES
   125   64   65 1    
   126   64  130 1    
   127   65   66 1    
   128   65   69 1    
   129   65  131 1    
   130   66   67 am   BACKBONE|DICT|INTERRES
   131   66   68 2    
   132   67  132 1    
   133   67  133 1    
   134   69   70 1    
   135   69  134 1    
   136   69  135 1    
   137   70   71 1    
   138   71  136 1    
   139   71  137 1    
@<TRIPOS>SUBSTRUCTURE
     1 UNK         1 GROUP             0       ****    0 ROOT    
