@<TRIPOS>MOLECULE
3R137
137   139    1
SMALL
USER_CHARGES


@<TRIPOS>ATOM
      1 CA         25.5906   -5.6286   -5.9246 C.3       0 UNK        -0.2020 
      2 C          25.6259   -5.2456   -4.4532 C.2       0 UNK         0.4855 
      3 O          24.6108   -4.8100   -3.9090 O.2       0 UNK        -0.5197 
      4 N          26.7856   -5.3979   -3.8009 N.am      1 UNK        -0.4892 
      5 CA         27.0197   -4.9809   -2.4145 C.3       1 UNK         0.0835 
      6 C6         28.3305   -5.5870   -1.8457 C.3       12 UNK        -0.0855 
      7 S7         29.8488   -5.1233   -2.7595 S.3       12 UNK        -0.2931 
      8 C8         30.6283   -3.9822   -1.5742 C.3       12 UNK         0.0378 
      9 C9         31.4131   -2.8877   -2.2793 C.ar      12 UNK        -0.0802 
     10 C10        32.7981   -2.9842   -2.4385 C.ar      12 UNK        -0.0944 
     11 C11        33.5146   -1.9461   -3.0445 C.ar      12 UNK        -0.0787 
     12 C12        32.8374   -0.7997   -3.4765 C.ar      12 UNK        -0.0862 
     13 C13        31.4498   -0.7038   -3.3448 C.ar      12 UNK        -0.0733 
     14 C14        30.7458   -1.7559   -2.7517 C.ar      12 UNK        -0.0832 
     15 C15        30.7055    0.5086   -3.8865 C.3       12 UNK         0.0240 
     16 S16        29.5475    1.2068   -2.6553 S.3       12 UNK        -0.2522 
     17 C17        28.5587    2.4447   -3.5717 C.3       12 UNK        -0.0967 
     18 CA         28.2511    2.1168   -5.0539 C.3       5 UNK         0.0660 
     19 N          27.6772    0.7784   -5.2194 N.am      5 UNK        -0.4015 
     20 C          27.5093    0.1619   -6.3973 C.2       4 UNK         0.4946 
     21 O          27.7936    0.6705   -7.4787 O.2       4 UNK        -0.5353 
     22 CA         26.8452   -1.2202   -6.3802 C.3       4 UNK         0.0277 
     23 CB         27.9174   -2.3194   -6.3136 C.3       4 UNK        -0.1981 
     24 N          25.8747   -1.3663   -5.2894 N.am      4 UNK        -0.4209 
     25 C          24.7603   -0.6221   -5.1734 C.2       3 UNK         0.4942 
     26 O          24.4493    0.2566   -5.9800 O.2       3 UNK        -0.5208 
     27 CA         23.8613   -0.8471   -3.9450 C.3       3 UNK         0.0250 
     28 CB         22.6874   -1.7713   -4.3023 C.3       3 UNK        -0.1990 
     29 N          24.5794   -1.3853   -2.7876 N.am      3 UNK        -0.4232 
     30 C          25.4899   -0.7021   -2.0769 C.2       2 UNK         0.4993 
     31 O          25.7729    0.4769   -2.2909 O.2       2 UNK        -0.5286 
     32 CA         26.2465   -1.4698   -0.9730 C.3       2 UNK         0.0209 
     33 CB         25.5770   -1.2459    0.3922 C.3       2 UNK        -0.1931 
     34 N          26.3872   -2.9143   -1.2161 N.am      2 UNK        -0.4546 
     35 C          26.9734   -3.4415   -2.3001 C.2       1 UNK         0.5154 
     36 O          27.4402   -2.7508   -3.2070 O.2       1 UNK        -0.5181 
     37 C          27.3746    3.2203   -5.6866 C.2       5 UNK         0.5014 
     38 O          27.9084    4.2674   -6.0537 O.2       5 UNK        -0.5248 
     39 N          26.0644    2.9679   -5.8207 N.am      6 UNK        -0.4434 
     40 CA         25.1290    3.8284   -6.5407 C.3       6 UNK         0.0363 
     41 CB         23.7634    3.8039   -5.8337 C.3       6 UNK        -0.1936 
     42 C          24.9885    3.3873   -8.0058 C.2       6 UNK         0.5081 
     43 O          25.0016    4.2391   -8.8944 O.2       6 UNK        -0.5248 
     44 N          24.8285    2.0753   -8.2328 N.am      7 UNK        -0.4718 
     45 CA         24.5168    1.5001   -9.5434 C.3       7 UNK         0.0273 
     46 CB         23.9716    0.0752   -9.3539 C.3       7 UNK        -0.1935 
     47 C          25.6894    1.4965  -10.5392 C.2       7 UNK         0.5018 
     48 O          25.4587    1.7329  -11.7262 O.2       7 UNK        -0.5186 
     49 N          26.9032    1.1969  -10.0601 N.am      8 UNK        -0.4240 
     50 CA         28.0974    0.9878  -10.8865 C.3       8 UNK         0.0235 
     51 CB         28.4409   -0.5127  -10.8815 C.3       8 UNK        -0.2000 
     52 C          29.3146    1.8015  -10.4214 C.2       8 UNK         0.4941 
     53 O          30.2609    1.9391  -11.1973 O.2       8 UNK        -0.5273 
     54 N          29.3139    2.2753   -9.1671 N.am      9 UNK        -0.4262 
     55 CA         30.3858    2.9736   -8.4397 C.3       9 UNK         0.0264 
     56 CB         30.8543    4.2498   -9.1661 C.3       9 UNK        -0.1955 
     57 C          31.5707    2.0645   -8.0636 C.2       9 UNK         0.5031 
     58 O          32.0743    2.1659   -6.9440 O.2       9 UNK        -0.5390 
     59 N          31.9827    1.1914   -8.9895 N.am      10 UNK        -0.4204 
     60 CA         32.9896    0.1476   -8.8033 C.3       10 UNK         0.0237 
     61 CB         33.3559   -0.4240  -10.1841 C.3       10 UNK        -0.1985 
     62 C          32.5108   -0.9757   -7.8643 C.2       10 UNK         0.4970 
     63 O          31.3087   -1.1338   -7.6401 O.2       10 UNK        -0.4914 
     64 N          33.4759   -1.7592   -7.3696 N.am      11 UNK        -0.4285 
     65 CA         33.2695   -2.8956   -6.4547 C.3       11 UNK         0.1007 
     66 C          32.5591   -4.1335   -7.0800 C.2       11 UNK         0.5703 
     67 N          32.3616   -4.2007   -8.3916 N.am      11 UNK        -0.7361 
     68 O          32.1835   -5.0552   -6.3604 O.2       11 UNK        -0.4986 
     69 C69        34.5946   -3.3192   -5.7583 C.3       12 UNK        -0.0947 
     70 S70        35.5030   -1.9295   -4.9943 S.3       12 UNK        -0.2240 
     71 C71        35.0194   -2.0691   -3.2424 C.3       12 UNK         0.0194 
     72 H72        24.8732   -6.4328   -6.0856 H         1 UNK         0.0906 
     73 H73        26.5640   -5.9641   -6.2821 H         1 UNK         0.0906 
     74 H74        25.2844   -4.7731   -6.5262 H         1 UNK         0.0906 
     75 H75        27.6078   -5.7134   -4.2962 H         1 UNK         0.3140 
     76 H76        26.1931   -5.3775   -1.8204 H         1 UNK         0.1085 
     77 H77        28.2576   -6.6755   -1.8691 H         1 UNK         0.0836 
     78 H78        28.4364   -5.3365   -0.7887 H         1 UNK         0.0836 
     79 H79        29.8685   -3.5147   -0.9459 H         1 UNK         0.0731 
     80 H80        31.2740   -4.5488   -0.9015 H         1 UNK         0.0731 
     81 H81        33.3163   -3.8672   -2.0898 H         1 UNK         0.1312 
     82 H82        33.3905    0.0008   -3.9490 H         1 UNK         0.1406 
     83 H83        29.6717   -1.6897   -2.6505 H         1 UNK         0.1631 
     84 H84        31.4009    1.2892   -4.1993 H         1 UNK         0.0717 
     85 H85        30.1831    0.1798   -4.7828 H         1 UNK         0.0717 
     86 H86        27.6278    2.5821   -3.0170 H         1 UNK         0.0934 
     87 H87        29.0872    3.3979   -3.5052 H         1 UNK         0.0934 
     88 H88        29.1946    2.1301   -5.6015 H         1 UNK         0.0739 
     89 H89        27.3969    0.3034   -4.3720 H         1 UNK         0.3093 
     90 H90        26.3020   -1.3387   -7.3189 H         1 UNK         0.0818 
     91 H91        28.5584   -2.2859   -7.1961 H         1 UNK         0.0819 
     92 H92        28.5691   -2.2027   -5.4470 H         1 UNK         0.0819 
     93 H93        27.4748   -3.3135   -6.2709 H         1 UNK         0.0819 
     94 H94        26.1231   -2.0146   -4.5485 H         1 UNK         0.3041 
     95 H95        23.4517    0.1252   -3.6622 H         1 UNK         0.0784 
     96 H96        22.1081   -1.3609   -5.1308 H         1 UNK         0.0793 
     97 H97        23.0289   -2.7615   -4.6050 H         1 UNK         0.0793 
     98 H98        22.0056   -1.8927   -3.4605 H         1 UNK         0.0793 
     99 H99        24.4222   -2.3586   -2.5647 H         1 UNK         0.3024 
    100 H100       27.2535   -1.0474   -0.9344 H         1 UNK         0.1171 
    101 H101       25.4813   -0.1810    0.6098 H         1 UNK         0.0786 
    102 H102       24.5756   -1.6768    0.4268 H         1 UNK         0.0786 
    103 H103       26.1622   -1.6869    1.1994 H         1 UNK         0.0786 
    104 H104       26.0129   -3.5306   -0.5083 H         1 UNK         0.2977 
    105 H105       25.7087    2.0694   -5.5200 H         1 UNK         0.3127 
    106 H106       25.4895    4.8595   -6.5328 H         1 UNK         0.0770 
    107 H107       23.3376    2.8003   -5.8005 H         1 UNK         0.0814 
    108 H108       23.0470    4.4447   -6.3496 H         1 UNK         0.0814 
    109 H109       23.8428    4.1670   -4.8090 H         1 UNK         0.0814 
    110 H110       24.7889    1.4401   -7.4396 H         1 UNK         0.2983 
    111 H111       23.7207    2.1022   -9.9876 H         1 UNK         0.0947 
    112 H112       24.7129   -0.5848   -8.9039 H         1 UNK         0.0806 
    113 H113       23.6822   -0.3632  -10.3100 H         1 UNK         0.0806 
    114 H114       23.0886    0.0697   -8.7143 H         1 UNK         0.0806 
    115 H115       27.0097    1.0139   -9.0639 H         1 UNK         0.3000 
    116 H116       27.9035    1.2911  -11.9174 H         1 UNK         0.0850 
    117 H117       29.3149   -0.7187  -11.5010 H         1 UNK         0.0810 
    118 H118       27.6177   -1.1089  -11.2754 H         1 UNK         0.0810 
    119 H119       28.6627   -0.8702   -9.8745 H         1 UNK         0.0810 
    120 H120       28.5570    1.9532   -8.5697 H         1 UNK         0.3040 
    121 H121       29.9359    3.2944   -7.5013 H         1 UNK         0.0766 
    122 H122       31.3712    4.0284  -10.0999 H         1 UNK         0.0812 
    123 H123       31.5479    4.8147   -8.5421 H         1 UNK         0.0812 
    124 H124       30.0143    4.9063   -9.3930 H         1 UNK         0.0812 
    125 H125       31.4981    1.2135   -9.8817 H         1 UNK         0.3205 
    126 H126       33.8757    0.6093   -8.3626 H         1 UNK         0.0754 
    127 H127       34.1431   -1.1752  -10.1082 H         1 UNK         0.0769 
    128 H128       33.7227    0.3569  -10.8509 H         1 UNK         0.0769 
    129 H129       32.4975   -0.8963  -10.6642 H         1 UNK         0.0769 
    130 H130       34.4366   -1.5678   -7.6115 H         1 UNK         0.2981 
    131 H131       32.5880   -2.5461   -5.6783 H         1 UNK         0.0541 
    132 H132       31.9006   -5.0082   -8.7796 H         1 UNK         0.3459 
    133 H133       32.6576   -3.4492   -8.9921 H         1 UNK         0.3459 
    134 H134       35.2641   -3.7876   -6.4819 H         1 UNK         0.0612 
    135 H135       34.4016   -4.0749   -4.9944 H         1 UNK         0.0612 
    136 H136       35.5177   -1.2819   -2.6754 H         1 UNK         0.0624 
    137 H137       35.3909   -3.0167   -2.8491 H         1 UNK         0.0624 
@<TRIPOS>BOND
     1    1    2 1    
     2    1   72 1    
     3    1   73 1    
     4    1   74 1    
     5    2    3 2    
     6    2    4 am   BACKBONE|DICT|INTERRES
     7    4    5 1    
     8    4   75 1    
     9    5    6 1    
    10    5   35 1    
    11    5   76 1    
    12    6    7 1    
    13    6   77 1    
    14    6   78 1    
    15    7    8 1    
    16    8    9 1    
    17    8   79 1    
    18    8   80 1    
    19    9   10 ar   
    20    9   14 ar   
    21   10   11 ar   
    22   10   81 1    
    23   11   12 ar   
    24   11   71 1    
    25   12   13 ar   
    26   12   82 1    
    27   13   14 ar   
    28   13   15 1    
    29   14   83 1    
    30   15   16 1    
    31   15   84 1    
    32   15   85 1    
    33   16   17 1    
    34   17   18 1    
    35   17   86 1    
    36   17   87 1    
    37   18   19 1    
    38   18   37 1    
    39   18   88 1    
    40   19   20 am   BACKBONE|DICT|INTERRES
    41   19   89 1    
    42   20   21 2    
    43   20   22 1    
    44   22   23 1    
    45   22   24 1    
    46   22   90 1    
    47   23   91 1    
    48   23   92 1    
    49   23   93 1    
    50   24   25 am   BACKBONE|DICT|INTERRES
    51   24   94 1    
    52   25   26 2    
    53   25   27 1    
    54   27   28 1    
    55   27   29 1    
    56   27   95 1    
    57   28   96 1    
    58   28   97 1    
    59   28   98 1    
    60   29   30 am   BACKBONE|DICT|INTERRES
    61   29   99 1    
    62   30   31 2    
    63   30   32 1    
    64   32   33 1    
    65   32   34 1    
    66   32  100 1    
    67   33  101 1    
    68   33  102 1    
    69   33  103 1    
    70   34   35 am   BACKBONE|DICT|INTERRES
    71   34  104 1    
    72   35   36 2    
    73   37   38 2    
    74   37   39 am   BACKBONE|DICT|INTERRES
    75   39   40 1    
    76   39  105 1    
    77   40   41 1    
    78   40   42 1    
    79   40  106 1    
    80   41  107 1    
    81   41  108 1    
    82   41  109 1    
    83   42   43 2    
    84   42   44 am   BACKBONE|DICT|INTERRES
    85   44   45 1    
    86   44  110 1    
    87   45   46 1    
    88   45   47 1    
    89   45  111 1    
    90   46  112 1    
    91   46  113 1    
    92   46  114 1    
    93   47   48 2    
    94   47   49 am   BACKBONE|DICT|INTERRES
    95   49   50 1    
    96   49  115 1    
    97   50   51 1    
    98   50   52 1    
    99   50  116 1    
   100   51  117 1    
   101   51  118 1    
   102   51  119 1    
   103   52   53 2    
   104   52   54 am   BACKBONE|DICT|INTERRES
   105   54   55 1    
   106   54  120 1    
   107   55   56 1    
   108   55   57 1    
   109   55  121 1    
   110   56  122 1    
   111   56  123 1    
   112   56  124 1    
   113   57   58 2    
   114   57   59 am   BACKBONE|DICT|INTERRES
   115   59   60 1    
   116   59  125 1    
   117   60   61 1    
   118   60   62 1    
   119   60  126 1    
   120   61  127 1    
   121   61  128 1    
   122   61  129 1    
   123   62   63 2    
   124   62   64 am   BACKBONE|DICT|INTERRES
   125   64   65 1    
   126   64  130 1    
   127   65   66 1    
   128   65   69 1    
   129   65  131 1    
   130   66   67 am   BACKBONE|DICT|INTERRES
   131   66   68 2    
   132   67  132 1    
   133   67  133 1    
   134   69   70 1    
   135   69  134 1    
   136   69  135 1    
   137   70   71 1    
   138   71  136 1    
   139   71  137 1    
@<TRIPOS>SUBSTRUCTURE
     1 UNK         1 GROUP             0       ****    0 ROOT    
