@<TRIPOS>MOLECULE
3R137
137   139    1
SMALL
USER_CHARGES


@<TRIPOS>ATOM
      1 CA         29.4782    0.6169   -0.5745 C.3       0 UNK        -0.2020 
      2 C          28.9847   -0.5732   -1.3824 C.2       0 UNK         0.4855 
      3 O          28.9180   -0.4898   -2.6071 O.2       0 UNK        -0.5197 
      4 N          28.6391   -1.6765   -0.7042 N.am      1 UNK        -0.4892 
      5 CA         28.1928   -2.9314   -1.3281 C.3       1 UNK         0.0835 
      6 C6         28.3336   -4.1550   -0.3801 C.3       12 UNK        -0.0855 
      7 S7         29.9399   -4.2671    0.4869 S.3       12 UNK        -0.2931 
      8 C8         30.9537   -5.2283   -0.6843 C.3       12 UNK         0.0378 
      9 C9         31.2280   -4.4432   -1.9579 C.ar      12 UNK        -0.0802 
     10 C10        31.9979   -3.2771   -1.9095 C.ar      12 UNK        -0.0944 
     11 C11        32.2045   -2.5008   -3.0535 C.ar      12 UNK        -0.0787 
     12 C12        31.6391   -2.9241   -4.2647 C.ar      12 UNK        -0.0862 
     13 C13        30.8748   -4.0942   -4.3296 C.ar      12 UNK        -0.0733 
     14 C14        30.6817   -4.8566   -3.1753 C.ar      12 UNK        -0.0832 
     15 C15        30.2356   -4.5252   -5.6424 C.3       12 UNK         0.0240 
     16 S16        28.4478   -4.1662   -5.6794 S.3       12 UNK        -0.2522 
     17 C17        28.4110   -2.3495   -5.5143 C.3       12 UNK        -0.0967 
     18 CA         27.5870   -1.6695   -6.6300 C.3       5 UNK         0.0660 
     19 N          26.1570   -1.9476   -6.5123 N.am      5 UNK        -0.4015 
     20 C          25.3374   -2.1420   -7.5532 C.2       4 UNK         0.4946 
     21 O          25.7117   -2.1910   -8.7255 O.2       4 UNK        -0.5353 
     22 CA         23.8354   -2.2911   -7.2457 C.3       4 UNK         0.0277 
     23 CB         23.4765   -3.7709   -7.0343 C.3       4 UNK        -0.1981 
     24 N          23.3820   -1.5126   -6.0892 N.am      4 UNK        -0.4209 
     25 C          23.4706   -0.1795   -5.9768 C.2       3 UNK         0.4942 
     26 O          23.9381    0.5551   -6.8451 O.2       3 UNK        -0.5208 
     27 CA         23.0139    0.4408   -4.6468 C.3       3 UNK         0.0250 
     28 CB         21.5105    0.7559   -4.6929 C.3       3 UNK        -0.1990 
     29 N          23.3115   -0.3632   -3.4538 N.am      3 UNK        -0.4232 
     30 C          24.5126   -0.8543   -3.1129 C.2       2 UNK         0.4993 
     31 O          25.5140   -0.7605   -3.8281 O.2       2 UNK        -0.5286 
     32 CA         24.5880   -1.5414   -1.7364 C.3       2 UNK         0.0209 
     33 CB         23.6359   -2.7544   -1.6409 C.3       2 UNK        -0.1931 
     34 N          25.9597   -1.9029   -1.3522 N.am      2 UNK        -0.4546 
     35 C          26.7520   -2.8513   -1.8780 C.2       1 UNK         0.5154 
     36 O          26.3933   -3.6559   -2.7384 O.2       1 UNK        -0.5181 
     37 C          27.8308   -0.1522   -6.6136 C.2       5 UNK         0.5014 
     38 O          28.6028    0.3380   -7.4400 O.2       5 UNK        -0.5248 
     39 N          27.1974    0.5565   -5.6675 N.am      6 UNK        -0.4434 
     40 CA         27.4460    1.9684   -5.3777 C.3       6 UNK         0.0363 
     41 CB         26.7622    2.3547   -4.0571 C.3       6 UNK        -0.1936 
     42 C          27.0363    2.9257   -6.5063 C.2       6 UNK         0.5081 
     43 O          27.8001    3.8412   -6.8117 O.2       6 UNK        -0.5248 
     44 N          25.8653    2.7047   -7.1236 N.am      7 UNK        -0.4718 
     45 CA         25.3716    3.5354   -8.2306 C.3       7 UNK         0.0273 
     46 CB         23.8589    3.3321   -8.4101 C.3       7 UNK        -0.1935 
     47 C          26.1137    3.2576   -9.5476 C.2       7 UNK         0.5018 
     48 O          26.2408    4.1611  -10.3745 O.2       7 UNK        -0.5186 
     49 N          26.6056    2.0218   -9.7070 N.am      8 UNK        -0.4240 
     50 CA         27.4516    1.5997  -10.8238 C.3       8 UNK         0.0235 
     51 CB         27.3897    0.0672  -10.9388 C.3       8 UNK        -0.2000 
     52 C          28.9131    2.0610  -10.6750 C.2       8 UNK         0.4941 
     53 O          29.6317    2.0832  -11.6747 O.2       8 UNK        -0.5273 
     54 N          29.3282    2.3794   -9.4374 N.am      9 UNK        -0.4262 
     55 CA         30.7015    2.6371   -8.9878 C.3       9 UNK         0.0264 
     56 CB         31.2530    3.9427   -9.5980 C.3       9 UNK        -0.1955 
     57 C          31.6128    1.4176   -9.2291 C.2       9 UNK         0.5031 
     58 O          32.7459    1.5703   -9.6893 O.2       9 UNK        -0.5390 
     59 N          31.0832    0.2214   -8.9315 N.am      10 UNK        -0.4204 
     60 CA         31.6652   -1.0808   -9.2773 C.3       10 UNK         0.0237 
     61 CB         30.6814   -2.1896   -8.8757 C.3       10 UNK        -0.1985 
     62 C          33.0595   -1.3498   -8.6837 C.2       10 UNK         0.4970 
     63 O          33.8623   -2.0301   -9.3237 O.2       10 UNK        -0.4914 
     64 N          33.3196   -0.8050   -7.4911 N.am      11 UNK        -0.4285 
     65 CA         34.6227   -0.8253   -6.8092 C.3       11 UNK         0.1007 
     66 C          35.4750    0.4581   -7.0420 C.2       11 UNK         0.5703 
     67 N          35.0716    1.3904   -7.8982 N.am      11 UNK        -0.7361 
     68 O          36.5432    0.6040   -6.4521 O.2       11 UNK        -0.4986 
     69 C69        34.4770   -1.1991   -5.3083 C.3       12 UNK        -0.0947 
     70 S70        33.2447   -0.1981   -4.4055 S.3       12 UNK        -0.2240 
     71 C71        33.0169   -1.2100   -2.9017 C.3       12 UNK         0.0194 
     72 H72        28.8346    1.4791   -0.7468 H         1 UNK         0.0906 
     73 H73        29.4905    0.4088    0.4952 H         1 UNK         0.0906 
     74 H74        30.4902    0.8809   -0.8807 H         1 UNK         0.0906 
     75 H75        28.7476   -1.7054    0.3001 H         1 UNK         0.3140 
     76 H76        28.8292   -3.0993   -2.1978 H         1 UNK         0.1085 
     77 H77        27.5603   -4.1244    0.3902 H         1 UNK         0.0836 
     78 H78        28.1654   -5.0815   -0.9328 H         1 UNK         0.0836 
     79 H79        30.4590   -6.1764   -0.9014 H         1 UNK         0.0731 
     80 H80        31.9030   -5.4786   -0.2085 H         1 UNK         0.0731 
     81 H81        32.4114   -2.9556   -0.9631 H         1 UNK         0.1312 
     82 H82        31.7713   -2.3409   -5.1636 H         1 UNK         0.1406 
     83 H83        30.0760   -5.7517   -3.2223 H         1 UNK         0.1631 
     84 H84        30.3801   -5.5978   -5.7798 H         1 UNK         0.0717 
     85 H85        30.7259   -4.0456   -6.4892 H         1 UNK         0.0717 
     86 H86        28.0082   -2.1022   -4.5310 H         1 UNK         0.0934 
     87 H87        29.4316   -1.9676   -5.5201 H         1 UNK         0.0934 
     88 H88        27.9533   -2.0418   -7.5887 H         1 UNK         0.0739 
     89 H89        25.7647   -1.8813   -5.5798 H         1 UNK         0.3093 
     90 H90        23.2889   -1.9262   -8.1180 H         1 UNK         0.0818 
     91 H91        23.7812   -4.3719   -7.8924 H         1 UNK         0.0819 
     92 H92        23.9719   -4.1849   -6.1549 H         1 UNK         0.0819 
     93 H93        22.4018   -3.9068   -6.9119 H         1 UNK         0.0819 
     94 H94        22.9952   -2.0300   -5.3135 H         1 UNK         0.3041 
     95 H95        23.5482    1.3855   -4.5362 H         1 UNK         0.0784 
     96 H96        21.2666    1.3688   -5.5622 H         1 UNK         0.0793 
     97 H97        20.9081   -0.1514   -4.7544 H         1 UNK         0.0793 
     98 H98        21.1930    1.3117   -3.8103 H         1 UNK         0.0793 
     99 H99        22.5450   -0.4899   -2.8084 H         1 UNK         0.3024 
    100 H100       24.2636   -0.8010   -1.0031 H         1 UNK         0.1171 
    101 H101       23.7541   -3.2767   -0.6914 H         1 UNK         0.0786 
    102 H102       22.5919   -2.4468   -1.7058 H         1 UNK         0.0786 
    103 H103       23.8082   -3.4747   -2.4413 H         1 UNK         0.0786 
    104 H104       26.3933   -1.2895   -0.6767 H         1 UNK         0.2977 
    105 H105       26.5940    0.0653   -5.0082 H         1 UNK         0.3127 
    106 H106       28.5233    2.0788   -5.2351 H         1 UNK         0.0770 
    107 H107       25.6795    2.2523   -4.1175 H         1 UNK         0.0814 
    108 H108       26.9791    3.3905   -3.7931 H         1 UNK         0.0814 
    109 H109       27.1118    1.7297   -3.2347 H         1 UNK         0.0814 
    110 H110       25.2856    1.9132   -6.8523 H         1 UNK         0.2983 
    111 H111       25.5403    4.5837   -7.9731 H         1 UNK         0.0947 
    112 H112       23.4595    4.0288   -9.1484 H         1 UNK         0.0806 
    113 H113       23.3197    3.5015   -7.4780 H         1 UNK         0.0806 
    114 H114       23.6234    2.3254   -8.7568 H         1 UNK         0.0806 
    115 H115       26.4442    1.3473   -8.9724 H         1 UNK         0.3000 
    116 H116       27.0592    2.0319  -11.7469 H         1 UNK         0.0850 
    117 H117       27.9896   -0.2872  -11.7782 H         1 UNK         0.0810 
    118 H118       26.3688   -0.2790  -11.1016 H         1 UNK         0.0810 
    119 H119       27.7670   -0.4222  -10.0398 H         1 UNK         0.0810 
    120 H120       28.6517    2.2870   -8.6903 H         1 UNK         0.3040 
    121 H121       30.6484    2.7723   -7.9063 H         1 UNK         0.0766 
    122 H122       31.3860    3.8628  -10.6772 H         1 UNK         0.0812 
    123 H123       32.2244    4.1924   -9.1696 H         1 UNK         0.0812 
    124 H124       30.5865    4.7828   -9.4026 H         1 UNK         0.0812 
    125 H125       30.1577    0.2119   -8.5059 H         1 UNK         0.3205 
    126 H126       31.7740   -1.1028  -10.3636 H         1 UNK         0.0754 
    127 H127       31.0867   -3.1784   -9.0957 H         1 UNK         0.0769 
    128 H128       29.7397   -2.0987   -9.4174 H         1 UNK         0.0769 
    129 H129       30.4600   -2.1525   -7.8099 H         1 UNK         0.0769 
    130 H130       32.6074   -0.2446   -7.0472 H         1 UNK         0.2981 
    131 H131       35.2267   -1.6189   -7.2521 H         1 UNK         0.0541 
    132 H132       34.2240    1.2833   -8.4462 H         1 UNK         0.3459 
    133 H133       35.6485    2.2047   -8.0346 H         1 UNK         0.3459 
    134 H134       35.4338   -1.1301   -4.7878 H         1 UNK         0.0612 
    135 H135       34.1896   -2.2483   -5.2372 H         1 UNK         0.0612 
    136 H136       32.5201   -0.5836   -2.1595 H         1 UNK         0.0624 
    137 H137       33.9992   -1.4512   -2.4929 H         1 UNK         0.0624 
@<TRIPOS>BOND
     1    1    2 1    
     2    1   72 1    
     3    1   73 1    
     4    1   74 1    
     5    2    3 2    
     6    2    4 am   BACKBONE|DICT|INTERRES
     7    4    5 1    
     8    4   75 1    
     9    5    6 1    
    10    5   35 1    
    11    5   76 1    
    12    6    7 1    
    13    6   77 1    
    14    6   78 1    
    15    7    8 1    
    16    8    9 1    
    17    8   79 1    
    18    8   80 1    
    19    9   10 ar   
    20    9   14 ar   
    21   10   11 ar   
    22   10   81 1    
    23   11   12 ar   
    24   11   71 1    
    25   12   13 ar   
    26   12   82 1    
    27   13   14 ar   
    28   13   15 1    
    29   14   83 1    
    30   15   16 1    
    31   15   84 1    
    32   15   85 1    
    33   16   17 1    
    34   17   18 1    
    35   17   86 1    
    36   17   87 1    
    37   18   19 1    
    38   18   37 1    
    39   18   88 1    
    40   19   20 am   BACKBONE|DICT|INTERRES
    41   19   89 1    
    42   20   21 2    
    43   20   22 1    
    44   22   23 1    
    45   22   24 1    
    46   22   90 1    
    47   23   91 1    
    48   23   92 1    
    49   23   93 1    
    50   24   25 am   BACKBONE|DICT|INTERRES
    51   24   94 1    
    52   25   26 2    
    53   25   27 1    
    54   27   28 1    
    55   27   29 1    
    56   27   95 1    
    57   28   96 1    
    58   28   97 1    
    59   28   98 1    
    60   29   30 am   BACKBONE|DICT|INTERRES
    61   29   99 1    
    62   30   31 2    
    63   30   32 1    
    64   32   33 1    
    65   32   34 1    
    66   32  100 1    
    67   33  101 1    
    68   33  102 1    
    69   33  103 1    
    70   34   35 am   BACKBONE|DICT|INTERRES
    71   34  104 1    
    72   35   36 2    
    73   37   38 2    
    74   37   39 am   BACKBONE|DICT|INTERRES
    75   39   40 1    
    76   39  105 1    
    77   40   41 1    
    78   40   42 1    
    79   40  106 1    
    80   41  107 1    
    81   41  108 1    
    82   41  109 1    
    83   42   43 2    
    84   42   44 am   BACKBONE|DICT|INTERRES
    85   44   45 1    
    86   44  110 1    
    87   45   46 1    
    88   45   47 1    
    89   45  111 1    
    90   46  112 1    
    91   46  113 1    
    92   46  114 1    
    93   47   48 2    
    94   47   49 am   BACKBONE|DICT|INTERRES
    95   49   50 1    
    96   49  115 1    
    97   50   51 1    
    98   50   52 1    
    99   50  116 1    
   100   51  117 1    
   101   51  118 1    
   102   51  119 1    
   103   52   53 2    
   104   52   54 am   BACKBONE|DICT|INTERRES
   105   54   55 1    
   106   54  120 1    
   107   55   56 1    
   108   55   57 1    
   109   55  121 1    
   110   56  122 1    
   111   56  123 1    
   112   56  124 1    
   113   57   58 2    
   114   57   59 am   BACKBONE|DICT|INTERRES
   115   59   60 1    
   116   59  125 1    
   117   60   61 1    
   118   60   62 1    
   119   60  126 1    
   120   61  127 1    
   121   61  128 1    
   122   61  129 1    
   123   62   63 2    
   124   62   64 am   BACKBONE|DICT|INTERRES
   125   64   65 1    
   126   64  130 1    
   127   65   66 1    
   128   65   69 1    
   129   65  131 1    
   130   66   67 am   BACKBONE|DICT|INTERRES
   131   66   68 2    
   132   67  132 1    
   133   67  133 1    
   134   69   70 1    
   135   69  134 1    
   136   69  135 1    
   137   70   71 1    
   138   71  136 1    
   139   71  137 1    
@<TRIPOS>SUBSTRUCTURE
     1 UNK         1 GROUP             0       ****    0 ROOT    
