@<TRIPOS>MOLECULE
3R137
137   139    1
SMALL
USER_CHARGES


@<TRIPOS>ATOM
      1 CA         26.5138   -6.2657   -2.9661 C.3       0 UNK        -0.2020 
      2 C          26.7765   -5.4949   -1.6815 C.2       0 UNK         0.4855 
      3 O          26.1129   -5.7395   -0.6736 O.2       0 UNK        -0.5197 
      4 N          27.7432   -4.5680   -1.7100 N.am      1 UNK        -0.4892 
      5 CA         28.1176   -3.7224   -0.5663 C.3       1 UNK         0.0835 
      6 C6         29.5638   -3.1772   -0.6814 C.3       12 UNK        -0.0855 
      7 S7         30.7920   -4.5260   -0.5670 S.3       12 UNK        -0.2931 
      8 C8         32.2034   -3.8522   -1.5161 C.3       12 UNK         0.0378 
      9 C9         32.0517   -3.8277   -3.0397 C.ar      12 UNK        -0.0802 
     10 C10        33.1016   -3.3016   -3.7999 C.ar      12 UNK        -0.0944 
     11 C11        33.0112   -3.2248   -5.1925 C.ar      12 UNK        -0.0787 
     12 C12        31.8476   -3.6620   -5.8313 C.ar      12 UNK        -0.0862 
     13 C13        30.7852   -4.1830   -5.0888 C.ar      12 UNK        -0.0733 
     14 C14        30.9093   -4.2949   -3.7019 C.ar      12 UNK        -0.0832 
     15 C15        29.4886   -4.5882   -5.7804 C.3       12 UNK         0.0240 
     16 S16        28.0393   -3.6959   -5.1162 S.3       12 UNK        -0.2522 
     17 C17        28.5128   -1.9517   -5.3653 C.3       12 UNK        -0.0967 
     18 CA         27.6921   -1.2650   -6.4786 C.3       5 UNK         0.0660 
     19 N          26.2583   -1.2240   -6.1823 N.am      5 UNK        -0.4015 
     20 C          25.3052   -0.9903   -7.0956 C.2       4 UNK         0.4946 
     21 O          25.5364   -0.8107   -8.2906 O.2       4 UNK        -0.5353 
     22 CA         23.8557   -0.8826   -6.5876 C.3       4 UNK         0.0277 
     23 CB         23.2264   -2.2784   -6.4556 C.3       4 UNK        -0.1981 
     24 N          23.7495   -0.1722   -5.3105 N.am      4 UNK        -0.4209 
     25 C          24.1366    1.0962   -5.1137 C.2       3 UNK         0.4942 
     26 O          24.5215    1.8343   -6.0194 O.2       3 UNK        -0.5208 
     27 CA         24.1579    1.6222   -3.6661 C.3       3 UNK         0.0250 
     28 CB         22.8928    2.4474   -3.3824 C.3       3 UNK        -0.1990 
     29 N          24.3136    0.5990   -2.6230 N.am      3 UNK        -0.4232 
     30 C          25.2955   -0.3115   -2.5421 C.2       2 UNK         0.4993 
     31 O          26.1787   -0.4468   -3.3939 O.2       2 UNK        -0.5286 
     32 CA         25.2522   -1.2437   -1.3241 C.3       2 UNK         0.0209 
     33 CB         23.9330   -2.0392   -1.2646 C.3       2 UNK        -0.1931 
     34 N          26.3625   -2.1931   -1.3754 N.am      2 UNK        -0.4546 
     35 C          27.0966   -2.5889   -0.3278 C.2       1 UNK         0.5154 
     36 O          26.9701   -2.1229    0.8060 O.2       1 UNK        -0.5181 
     37 C          28.2456    0.1447   -6.7461 C.2       5 UNK         0.5014 
     38 O          29.1322    0.2918   -7.5871 O.2       5 UNK        -0.5248 
     39 N          27.7251    1.1623   -6.0438 N.am      6 UNK        -0.4434 
     40 CA         28.0627    2.5701   -6.2766 C.3       6 UNK         0.0363 
     41 CB         27.4979    3.4462   -5.1484 C.3       6 UNK        -0.1936 
     42 C          27.5861    3.0630   -7.6545 C.2       6 UNK         0.5081 
     43 O          28.3016    3.8242   -8.3030 O.2       6 UNK        -0.5248 
     44 N          26.4112    2.5944   -8.0926 N.am      7 UNK        -0.4718 
     45 CA         25.8751    2.8403   -9.4296 C.3       7 UNK         0.0273 
     46 CB         24.3793    2.4843   -9.4568 C.3       7 UNK        -0.1935 
     47 C          26.6437    2.0773  -10.5226 C.2       7 UNK         0.5018 
     48 O          27.0140    2.6828  -11.5292 O.2       7 UNK        -0.5186 
     49 N          26.8454    0.7666  -10.3231 N.am      8 UNK        -0.4240 
     50 CA         27.4203   -0.1306  -11.3277 C.3       8 UNK         0.0235 
     51 CB         27.0228   -1.5829  -11.0140 C.3       8 UNK        -0.2000 
     52 C          28.9452   -0.0182  -11.4740 C.2       8 UNK         0.4941 
     53 O          29.4307    0.0521  -12.6041 O.2       8 UNK        -0.5273 
     54 N          29.6713   -0.0594  -10.3493 N.am      9 UNK        -0.4262 
     55 CA         31.1283   -0.2279  -10.3132 C.3       9 UNK         0.0264 
     56 CB         31.4429   -1.5202   -9.5400 C.3       9 UNK        -0.1955 
     57 C          31.8720    0.9662   -9.6920 C.2       9 UNK         0.5031 
     58 O          33.0868    1.0584   -9.8728 O.2       9 UNK        -0.5390 
     59 N          31.1515    1.8484   -8.9830 N.am      10 UNK        -0.4204 
     60 CA         31.6526    3.0164   -8.2447 C.3       10 UNK         0.0237 
     61 CB         32.3252    4.0403   -9.1857 C.3       10 UNK        -0.1985 
     62 C          32.5207    2.6380   -7.0281 C.2       10 UNK         0.4970 
     63 O          33.4739    3.3518   -6.7102 O.2       10 UNK        -0.4914 
     64 N          32.1604    1.5379   -6.3560 N.am      11 UNK        -0.4285 
     65 CA         32.8582    1.0042   -5.1729 C.3       11 UNK         0.1007 
     66 C          31.9176    0.3819   -4.1029 C.2       11 UNK         0.5703 
     67 N          30.6026    0.5343   -4.2067 N.am      11 UNK        -0.7361 
     68 O          32.3849   -0.1939   -3.1244 O.2       11 UNK        -0.4986 
     69 C69        34.0890    0.1244   -5.5410 C.3       12 UNK        -0.0947 
     70 S70        33.7725   -1.1207   -6.8381 S.3       12 UNK        -0.2240 
     71 C71        34.1746   -2.6908   -6.0138 C.3       12 UNK         0.0194 
     72 H72        27.3910   -6.2811   -3.6125 H         1 UNK         0.0906 
     73 H73        26.2486   -7.2986   -2.7413 H         1 UNK         0.0906 
     74 H74        25.6887   -5.8126   -3.5150 H         1 UNK         0.0906 
     75 H75        28.2283   -4.3870   -2.5766 H         1 UNK         0.3140 
     76 H76        28.0772   -4.3437    0.3319 H         1 UNK         0.1085 
     77 H77        29.6962   -2.6233   -1.6129 H         1 UNK         0.0836 
     78 H78        29.7777   -2.4730    0.1254 H         1 UNK         0.0836 
     79 H79        32.4084   -2.8398   -1.1637 H         1 UNK         0.0731 
     80 H80        33.0842   -4.4472   -1.2703 H         1 UNK         0.0731 
     81 H81        33.9928   -2.9436   -3.3024 H         1 UNK         0.1312 
     82 H82        31.7690   -3.5819   -6.9070 H         1 UNK         0.1406 
     83 H83        30.0914   -4.7229   -3.1462 H         1 UNK         0.1631 
     84 H84        29.3353   -5.6606   -5.6536 H         1 UNK         0.0717 
     85 H85        29.5470   -4.4077   -6.8549 H         1 UNK         0.0717 
     86 H86        28.3889   -1.4324   -4.4140 H         1 UNK         0.0934 
     87 H87        29.5776   -1.8896   -5.5951 H         1 UNK         0.0934 
     88 H88        27.8294   -1.8396   -7.3974 H         1 UNK         0.0739 
     89 H89        26.0085   -1.2775   -5.2005 H         1 UNK         0.3093 
     90 H90        23.2880   -0.3175   -7.3300 H         1 UNK         0.0818 
     91 H91        22.1739   -2.2152   -6.1786 H         1 UNK         0.0819 
     92 H92        23.2783   -2.8192   -7.4018 H         1 UNK         0.0819 
     93 H93        23.7363   -2.8849   -5.7058 H         1 UNK         0.0819 
     94 H94        23.4352   -0.7045   -4.5128 H         1 UNK         0.3041 
     95 H95        25.0198    2.2864   -3.5838 H         1 UNK         0.0784 
     96 H96        22.7649    3.2352   -4.1266 H         1 UNK         0.0793 
     97 H97        21.9942    1.8296   -3.4044 H         1 UNK         0.0793 
     98 H98        22.9443    2.9334   -2.4079 H         1 UNK         0.0793 
     99 H99        23.6287    0.6245   -1.8810 H         1 UNK         0.3024 
    100 H100       25.3386   -0.6149   -0.4348 H         1 UNK         0.1171 
    101 H101       23.0689   -1.3840   -1.1506 H         1 UNK         0.0786 
    102 H102       23.9247   -2.7226   -0.4150 H         1 UNK         0.0786 
    103 H103       23.7799   -2.6334   -2.1665 H         1 UNK         0.0786 
    104 H104       26.5786   -2.5605   -2.2917 H         1 UNK         0.2977 
    105 H105       27.0036    0.9639   -5.3638 H         1 UNK         0.3127 
    106 H106       29.1498    2.6594   -6.2516 H         1 UNK         0.0770 
    107 H107       26.4090    3.4777   -5.1633 H         1 UNK         0.0814 
    108 H108       27.8483    4.4743   -5.2486 H         1 UNK         0.0814 
    109 H109       27.8141    3.0904   -4.1677 H         1 UNK         0.0814 
    110 H110       25.8376    2.0471   -7.4569 H         1 UNK         0.2983 
    111 H111       25.9701    3.9076   -9.6422 H         1 UNK         0.0947 
    112 H112       23.9497    2.6770  -10.4407 H         1 UNK         0.0806 
    113 H113       23.8190    3.0791   -8.7352 H         1 UNK         0.0806 
    114 H114       24.2068    1.4329   -9.2245 H         1 UNK         0.0806 
    115 H115       26.4614    0.3289   -9.4881 H         1 UNK         0.3000 
    116 H116       26.9817    0.1248  -12.2952 H         1 UNK         0.0850 
    117 H117       27.4146   -2.2680  -11.7672 H         1 UNK         0.0810 
    118 H118       25.9392   -1.7022  -11.0004 H         1 UNK         0.0810 
    119 H119       27.4052   -1.9085  -10.0458 H         1 UNK         0.0810 
    120 H120       29.2003   -0.0775   -9.4488 H         1 UNK         0.3040 
    121 H121       31.5230   -0.3443  -11.3246 H         1 UNK         0.0766 
    122 H122       32.5154   -1.7180   -9.5322 H         1 UNK         0.0812 
    123 H123       30.9602   -2.3840   -9.9971 H         1 UNK         0.0812 
    124 H124       31.1121   -1.4612   -8.5022 H         1 UNK         0.0812 
    125 H125       30.1699    1.6371   -8.8489 H         1 UNK         0.3205 
    126 H126       30.7782    3.5091   -7.8246 H         1 UNK         0.0754 
    127 H127       32.5423    4.9701   -8.6586 H         1 UNK         0.0769 
    128 H128       31.6768    4.2904  -10.0255 H         1 UNK         0.0769 
    129 H129       33.2686    3.6694   -9.5868 H         1 UNK         0.0769 
    130 H130       31.3961    0.9770   -6.7057 H         1 UNK         0.2981 
    131 H131       33.2600    1.8646   -4.6347 H         1 UNK         0.0541 
    132 H132       30.1970    1.0856   -4.9419 H         1 UNK         0.3459 
    133 H133       30.0226    0.1603   -3.4739 H         1 UNK         0.3459 
    134 H134       34.5131   -0.3540   -4.6569 H         1 UNK         0.0612 
    135 H135       34.8801    0.7721   -5.9210 H         1 UNK         0.0612 
    136 H136       34.4268   -3.4259   -6.7792 H         1 UNK         0.0624 
    137 H137       35.0710   -2.5691   -5.4039 H         1 UNK         0.0624 
@<TRIPOS>BOND
     1    1    2 1    
     2    1   72 1    
     3    1   73 1    
     4    1   74 1    
     5    2    3 2    
     6    2    4 am   BACKBONE|DICT|INTERRES
     7    4    5 1    
     8    4   75 1    
     9    5    6 1    
    10    5   35 1    
    11    5   76 1    
    12    6    7 1    
    13    6   77 1    
    14    6   78 1    
    15    7    8 1    
    16    8    9 1    
    17    8   79 1    
    18    8   80 1    
    19    9   10 ar   
    20    9   14 ar   
    21   10   11 ar   
    22   10   81 1    
    23   11   12 ar   
    24   11   71 1    
    25   12   13 ar   
    26   12   82 1    
    27   13   14 ar   
    28   13   15 1    
    29   14   83 1    
    30   15   16 1    
    31   15   84 1    
    32   15   85 1    
    33   16   17 1    
    34   17   18 1    
    35   17   86 1    
    36   17   87 1    
    37   18   19 1    
    38   18   37 1    
    39   18   88 1    
    40   19   20 am   BACKBONE|DICT|INTERRES
    41   19   89 1    
    42   20   21 2    
    43   20   22 1    
    44   22   23 1    
    45   22   24 1    
    46   22   90 1    
    47   23   91 1    
    48   23   92 1    
    49   23   93 1    
    50   24   25 am   BACKBONE|DICT|INTERRES
    51   24   94 1    
    52   25   26 2    
    53   25   27 1    
    54   27   28 1    
    55   27   29 1    
    56   27   95 1    
    57   28   96 1    
    58   28   97 1    
    59   28   98 1    
    60   29   30 am   BACKBONE|DICT|INTERRES
    61   29   99 1    
    62   30   31 2    
    63   30   32 1    
    64   32   33 1    
    65   32   34 1    
    66   32  100 1    
    67   33  101 1    
    68   33  102 1    
    69   33  103 1    
    70   34   35 am   BACKBONE|DICT|INTERRES
    71   34  104 1    
    72   35   36 2    
    73   37   38 2    
    74   37   39 am   BACKBONE|DICT|INTERRES
    75   39   40 1    
    76   39  105 1    
    77   40   41 1    
    78   40   42 1    
    79   40  106 1    
    80   41  107 1    
    81   41  108 1    
    82   41  109 1    
    83   42   43 2    
    84   42   44 am   BACKBONE|DICT|INTERRES
    85   44   45 1    
    86   44  110 1    
    87   45   46 1    
    88   45   47 1    
    89   45  111 1    
    90   46  112 1    
    91   46  113 1    
    92   46  114 1    
    93   47   48 2    
    94   47   49 am   BACKBONE|DICT|INTERRES
    95   49   50 1    
    96   49  115 1    
    97   50   51 1    
    98   50   52 1    
    99   50  116 1    
   100   51  117 1    
   101   51  118 1    
   102   51  119 1    
   103   52   53 2    
   104   52   54 am   BACKBONE|DICT|INTERRES
   105   54   55 1    
   106   54  120 1    
   107   55   56 1    
   108   55   57 1    
   109   55  121 1    
   110   56  122 1    
   111   56  123 1    
   112   56  124 1    
   113   57   58 2    
   114   57   59 am   BACKBONE|DICT|INTERRES
   115   59   60 1    
   116   59  125 1    
   117   60   61 1    
   118   60   62 1    
   119   60  126 1    
   120   61  127 1    
   121   61  128 1    
   122   61  129 1    
   123   62   63 2    
   124   62   64 am   BACKBONE|DICT|INTERRES
   125   64   65 1    
   126   64  130 1    
   127   65   66 1    
   128   65   69 1    
   129   65  131 1    
   130   66   67 am   BACKBONE|DICT|INTERRES
   131   66   68 2    
   132   67  132 1    
   133   67  133 1    
   134   69   70 1    
   135   69  134 1    
   136   69  135 1    
   137   70   71 1    
   138   71  136 1    
   139   71  137 1    
@<TRIPOS>SUBSTRUCTURE
     1 UNK         1 GROUP             0       ****    0 ROOT    
