@<TRIPOS>MOLECULE
3R137
137   139    1
SMALL
USER_CHARGES


@<TRIPOS>ATOM
      1 CA         27.7644   -2.1176    2.2080 C.3       0 UNK        -0.2020 
      2 C          27.5680   -2.3846    0.7242 C.2       0 UNK         0.4855 
      3 O          26.4742   -2.1689    0.2010 O.2       0 UNK        -0.5197 
      4 N          28.6148   -2.8684    0.0384 N.am      1 UNK        -0.4892 
      5 CA         28.6253   -3.1204   -1.4119 C.3       1 UNK         0.0835 
      6 C6         30.0427   -3.4311   -1.9547 C.3       12 UNK        -0.0855 
      7 S7         31.3883   -2.2095   -1.6992 S.3       12 UNK        -0.2931 
      8 C8         30.6643   -0.6447   -1.0883 C.3       12 UNK         0.0378 
      9 C9         29.8166    0.0982   -2.1143 C.ar      12 UNK        -0.0802 
     10 C10        30.3394    0.4180   -3.3720 C.ar      12 UNK        -0.0944 
     11 C11        29.5860    1.1623   -4.2834 C.ar      12 UNK        -0.0787 
     12 C12        28.3082    1.6012   -3.9281 C.ar      12 UNK        -0.0862 
     13 C13        27.7663    1.2744   -2.6828 C.ar      12 UNK        -0.0733 
     14 C14        28.5262    0.5248   -1.7795 C.ar      12 UNK        -0.0832 
     15 C15        26.3721    1.7514   -2.3016 C.3       12 UNK         0.0240 
     16 S16        25.0798    0.5951   -2.8578 S.3       12 UNK        -0.2522 
     17 C17        24.9213    1.0103   -4.6315 C.3       12 UNK        -0.0967 
     18 CA         25.5307   -0.0752   -5.5528 C.3       5 UNK         0.0660 
     19 N          24.9070   -1.3781   -5.3247 N.am      5 UNK        -0.4015 
     20 C          25.3492   -2.5501   -5.7941 C.2       4 UNK         0.4946 
     21 O          26.3485   -2.6756   -6.5048 O.2       4 UNK        -0.5353 
     22 CA         24.5496   -3.7853   -5.3503 C.3       4 UNK         0.0277 
     23 CB         25.1879   -5.1084   -5.8144 C.3       4 UNK        -0.1981 
     24 N          24.4479   -3.7995   -3.8914 N.am      4 UNK        -0.4209 
     25 C          23.3898   -3.3948   -3.1739 C.2       3 UNK         0.4942 
     26 O          22.3696   -2.9356   -3.6894 O.2       3 UNK        -0.5208 
     27 CA         23.4853   -3.4728   -1.6322 C.3       3 UNK         0.0250 
     28 CB         22.1551   -3.9095   -0.9828 C.3       3 UNK        -0.1990 
     29 N          24.6073   -4.2830   -1.1393 N.am      3 UNK        -0.4232 
     30 C          24.8259   -5.5945   -1.3426 C.2       2 UNK         0.4993 
     31 O          24.0014   -6.3536   -1.8536 O.2       2 UNK        -0.5286 
     32 CA         26.2199   -6.1409   -0.9575 C.3       2 UNK         0.0209 
     33 CB         26.6777   -7.2786   -1.8955 C.3       2 UNK        -0.1931 
     34 N          27.2610   -5.1040   -0.8712 N.am      2 UNK        -0.4546 
     35 C          27.6421   -4.2385   -1.8277 C.2       1 UNK         0.5154 
     36 O          27.2034   -4.2585   -2.9776 O.2       1 UNK        -0.5181 
     37 C          25.4238    0.3388   -7.0342 C.2       5 UNK         0.5014 
     38 O          24.3957    0.0902   -7.6704 O.2       5 UNK        -0.5248 
     39 N          26.4757    0.9851   -7.5424 N.am      6 UNK        -0.4434 
     40 CA         26.6154    1.4577   -8.9159 C.3       6 UNK         0.0363 
     41 CB         27.1601    0.3173   -9.8017 C.3       6 UNK        -0.1936 
     42 C          27.5253    2.6964   -8.9262 C.2       6 UNK         0.5081 
     43 O          27.8846    3.2106   -7.8628 O.2       6 UNK        -0.5248 
     44 N          27.8700    3.1689  -10.1293 N.am      7 UNK        -0.4718 
     45 CA         28.7100    4.3414  -10.3800 C.3       7 UNK         0.0273 
     46 CB         28.5354    4.7628  -11.8512 C.3       7 UNK        -0.1935 
     47 C          30.1915    4.1113  -10.0173 C.2       7 UNK         0.5018 
     48 O          31.0156    3.9106  -10.9128 O.2       7 UNK        -0.5186 
     49 N          30.4945    4.1543   -8.7118 N.am      8 UNK        -0.4240 
     50 CA         31.8258    4.1487   -8.0896 C.3       8 UNK         0.0235 
     51 CB         32.5076    5.5210   -8.2874 C.3       8 UNK        -0.2000 
     52 C          32.6970    2.9647   -8.5460 C.2       8 UNK         0.4941 
     53 O          32.5276    1.8602   -8.0324 O.2       8 UNK        -0.5273 
     54 N          33.5837    3.1980   -9.5252 N.am      9 UNK        -0.4262 
     55 CA         34.4439    2.1921  -10.1584 C.3       9 UNK         0.0264 
     56 CB         35.3402    2.8768  -11.2023 C.3       9 UNK        -0.1955 
     57 C          33.6770    1.0171  -10.7948 C.2       9 UNK         0.5031 
     58 O          34.2306   -0.0804  -10.8820 O.2       9 UNK        -0.5390 
     59 N          32.4091    1.2409  -11.1754 N.am      10 UNK        -0.4204 
     60 CA         31.4800    0.2091  -11.6466 C.3       10 UNK         0.0237 
     61 CB         30.1767    0.8751  -12.1132 C.3       10 UNK        -0.1985 
     62 C          31.1777   -0.8912  -10.6082 C.2       10 UNK         0.4970 
     63 O          30.7687   -1.9816  -11.0087 O.2       10 UNK        -0.4914 
     64 N          31.3909   -0.6089   -9.3145 N.am      11 UNK        -0.4285 
     65 CA         31.2864   -1.5891   -8.2213 C.3       11 UNK         0.1007 
     66 C          32.4767   -2.5914   -8.1554 C.2       11 UNK         0.5703 
     67 N          33.5602   -2.4023   -8.9026 N.am      11 UNK        -0.7361 
     68 O          32.4113   -3.5707   -7.4163 O.2       11 UNK        -0.4986 
     69 C69        31.0577   -0.9101   -6.8438 C.3       12 UNK        -0.0947 
     70 S70        29.6430    0.2387   -6.8686 S.3       12 UNK        -0.2240 
     71 C71        30.1424    1.4956   -5.6557 C.3       12 UNK         0.0194 
     72 H72        28.7759   -2.3563    2.5358 H         1 UNK         0.0906 
     73 H73        27.5761   -1.0669    2.4265 H         1 UNK         0.0906 
     74 H74        27.0670   -2.7171    2.7924 H         1 UNK         0.0906 
     75 H75        29.4883   -3.0437    0.5161 H         1 UNK         0.3140 
     76 H76        28.2631   -2.2191   -1.9080 H         1 UNK         0.1085 
     77 H77        29.9872   -3.5918   -3.0337 H         1 UNK         0.0836 
     78 H78        30.3940   -4.3784   -1.5405 H         1 UNK         0.0836 
     79 H79        31.4927    0.0113   -0.8177 H         1 UNK         0.0731 
     80 H80        30.1222   -0.8066   -0.1586 H         1 UNK         0.0731 
     81 H81        31.3349    0.0909   -3.6396 H         1 UNK         0.1312 
     82 H82        27.7340    2.1918   -4.6281 H         1 UNK         0.1406 
     83 H83        28.1133    0.2852   -0.8088 H         1 UNK         0.1631 
     84 H84        26.1839    2.7472   -2.7056 H         1 UNK         0.0717 
     85 H85        26.3007    1.8513   -1.2174 H         1 UNK         0.0717 
     86 H86        23.8591    1.1390   -4.8499 H         1 UNK         0.0934 
     87 H87        25.3782    1.9828   -4.8213 H         1 UNK         0.0934 
     88 H88        26.5896   -0.1849   -5.3083 H         1 UNK         0.0739 
     89 H89        24.0713   -1.3756   -4.7579 H         1 UNK         0.3093 
     90 H90        23.5578   -3.7144   -5.8017 H         1 UNK         0.0818 
     91 H91        26.1985   -5.2280   -5.4213 H         1 UNK         0.0819 
     92 H92        24.5998   -5.9666   -5.4889 H         1 UNK         0.0819 
     93 H93        25.2519   -5.1517   -6.9023 H         1 UNK         0.0819 
     94 H94        25.2935   -4.0834   -3.4036 H         1 UNK         0.3041 
     95 H95        23.6935   -2.4543   -1.3002 H         1 UNK         0.0784 
     96 H96        21.3541   -3.2091   -1.2226 H         1 UNK         0.0793 
     97 H97        21.8374   -4.8934   -1.3289 H         1 UNK         0.0793 
     98 H98        22.2367   -3.9450    0.1035 H         1 UNK         0.0793 
     99 H99        25.3474   -3.7461   -0.6976 H         1 UNK         0.3024 
    100 H100       26.1106   -6.5580    0.0450 H         1 UNK         0.1171 
    101 H101       27.6591   -7.6574   -1.6106 H         1 UNK         0.0786 
    102 H102       25.9856   -8.1208   -1.8594 H         1 UNK         0.0786 
    103 H103       26.7334   -6.9491   -2.9336 H         1 UNK         0.0786 
    104 H104       27.6771   -4.9800    0.0418 H         1 UNK         0.2977 
    105 H105       27.2693    1.2078   -6.9537 H         1 UNK         0.3127 
    106 H106       25.6379    1.7705   -9.2890 H         1 UNK         0.0770 
    107 H107       28.1779    0.0412   -9.5236 H         1 UNK         0.0814 
    108 H108       27.1704    0.5960  -10.8554 H         1 UNK         0.0814 
    109 H109       26.5427   -0.5774   -9.7192 H         1 UNK         0.0814 
    110 H110       27.5332    2.6838  -10.9481 H         1 UNK         0.2983 
    111 H111       28.3470    5.1628   -9.7578 H         1 UNK         0.0947 
    112 H112       29.1410    5.6409  -12.0798 H         1 UNK         0.0806 
    113 H113       27.4992    5.0207  -12.0709 H         1 UNK         0.0806 
    114 H114       28.8381    3.9718  -12.5387 H         1 UNK         0.0806 
    115 H115       29.7075    4.1752   -8.0710 H         1 UNK         0.3000 
    116 H116       31.6678    4.0122   -7.0187 H         1 UNK         0.0850 
    117 H117       33.5054    5.5337   -7.8461 H         1 UNK         0.0810 
    118 H118       31.9356    6.3116   -7.8015 H         1 UNK         0.0810 
    119 H119       32.6049    5.7905   -9.3396 H         1 UNK         0.0810 
    120 H120       33.6156    4.1288   -9.9156 H         1 UNK         0.3040 
    121 H121       35.0823    1.7738   -9.3775 H         1 UNK         0.0766 
    122 H122       36.0104    2.1563  -11.6738 H         1 UNK         0.0812 
    123 H123       35.9642    3.6466  -10.7479 H         1 UNK         0.0812 
    124 H124       34.7529    3.3426  -11.9948 H         1 UNK         0.0812 
    125 H125       32.0326    2.1797  -11.0693 H         1 UNK         0.3205 
    126 H126       31.9428   -0.2778  -12.5074 H         1 UNK         0.0754 
    127 H127       29.6679    1.3687  -11.2866 H         1 UNK         0.0769 
    128 H128       29.4869    0.1396  -12.5294 H         1 UNK         0.0769 
    129 H129       30.3633    1.6207  -12.8864 H         1 UNK         0.0769 
    130 H130       31.7333    0.3073   -9.0430 H         1 UNK         0.2981 
    131 H131       30.4023   -2.1977   -8.4209 H         1 UNK         0.0541 
    132 H132       33.6362   -1.6060   -9.5238 H         1 UNK         0.3459 
    133 H133       34.3153   -3.0668   -8.8471 H         1 UNK         0.3459 
    134 H134       31.9572   -0.3729   -6.5395 H         1 UNK         0.0612 
    135 H135       30.8673   -1.6562   -6.0702 H         1 UNK         0.0612 
    136 H136       29.7639    2.4648   -5.9824 H         1 UNK         0.0624 
    137 H137       31.2279    1.5938   -5.6209 H         1 UNK         0.0624 
@<TRIPOS>BOND
     1    1    2 1    
     2    1   72 1    
     3    1   73 1    
     4    1   74 1    
     5    2    3 2    
     6    2    4 am   BACKBONE|DICT|INTERRES
     7    4    5 1    
     8    4   75 1    
     9    5    6 1    
    10    5   35 1    
    11    5   76 1    
    12    6    7 1    
    13    6   77 1    
    14    6   78 1    
    15    7    8 1    
    16    8    9 1    
    17    8   79 1    
    18    8   80 1    
    19    9   10 ar   
    20    9   14 ar   
    21   10   11 ar   
    22   10   81 1    
    23   11   12 ar   
    24   11   71 1    
    25   12   13 ar   
    26   12   82 1    
    27   13   14 ar   
    28   13   15 1    
    29   14   83 1    
    30   15   16 1    
    31   15   84 1    
    32   15   85 1    
    33   16   17 1    
    34   17   18 1    
    35   17   86 1    
    36   17   87 1    
    37   18   19 1    
    38   18   37 1    
    39   18   88 1    
    40   19   20 am   BACKBONE|DICT|INTERRES
    41   19   89 1    
    42   20   21 2    
    43   20   22 1    
    44   22   23 1    
    45   22   24 1    
    46   22   90 1    
    47   23   91 1    
    48   23   92 1    
    49   23   93 1    
    50   24   25 am   BACKBONE|DICT|INTERRES
    51   24   94 1    
    52   25   26 2    
    53   25   27 1    
    54   27   28 1    
    55   27   29 1    
    56   27   95 1    
    57   28   96 1    
    58   28   97 1    
    59   28   98 1    
    60   29   30 am   BACKBONE|DICT|INTERRES
    61   29   99 1    
    62   30   31 2    
    63   30   32 1    
    64   32   33 1    
    65   32   34 1    
    66   32  100 1    
    67   33  101 1    
    68   33  102 1    
    69   33  103 1    
    70   34   35 am   BACKBONE|DICT|INTERRES
    71   34  104 1    
    72   35   36 2    
    73   37   38 2    
    74   37   39 am   BACKBONE|DICT|INTERRES
    75   39   40 1    
    76   39  105 1    
    77   40   41 1    
    78   40   42 1    
    79   40  106 1    
    80   41  107 1    
    81   41  108 1    
    82   41  109 1    
    83   42   43 2    
    84   42   44 am   BACKBONE|DICT|INTERRES
    85   44   45 1    
    86   44  110 1    
    87   45   46 1    
    88   45   47 1    
    89   45  111 1    
    90   46  112 1    
    91   46  113 1    
    92   46  114 1    
    93   47   48 2    
    94   47   49 am   BACKBONE|DICT|INTERRES
    95   49   50 1    
    96   49  115 1    
    97   50   51 1    
    98   50   52 1    
    99   50  116 1    
   100   51  117 1    
   101   51  118 1    
   102   51  119 1    
   103   52   53 2    
   104   52   54 am   BACKBONE|DICT|INTERRES
   105   54   55 1    
   106   54  120 1    
   107   55   56 1    
   108   55   57 1    
   109   55  121 1    
   110   56  122 1    
   111   56  123 1    
   112   56  124 1    
   113   57   58 2    
   114   57   59 am   BACKBONE|DICT|INTERRES
   115   59   60 1    
   116   59  125 1    
   117   60   61 1    
   118   60   62 1    
   119   60  126 1    
   120   61  127 1    
   121   61  128 1    
   122   61  129 1    
   123   62   63 2    
   124   62   64 am   BACKBONE|DICT|INTERRES
   125   64   65 1    
   126   64  130 1    
   127   65   66 1    
   128   65   69 1    
   129   65  131 1    
   130   66   67 am   BACKBONE|DICT|INTERRES
   131   66   68 2    
   132   67  132 1    
   133   67  133 1    
   134   69   70 1    
   135   69  134 1    
   136   69  135 1    
   137   70   71 1    
   138   71  136 1    
   139   71  137 1    
@<TRIPOS>SUBSTRUCTURE
     1 UNK         1 GROUP             0       ****    0 ROOT    
