@<TRIPOS>MOLECULE
3R137
137   139    1
SMALL
USER_CHARGES


@<TRIPOS>ATOM
      1 CA         25.9764   -5.5801    1.8454 C.3       0 UNK        -0.2020 
      2 C          26.8088   -6.1708    0.7100 C.2       0 UNK         0.4855 
      3 O          26.7233   -7.3724    0.4649 O.2       0 UNK        -0.5197 
      4 N          27.6306   -5.3888   -0.0065 N.am      1 UNK        -0.4892 
      5 CA         27.8138   -3.9339    0.1142 C.3       1 UNK         0.0835 
      6 C6         29.0759   -3.4704   -0.6583 C.3       12 UNK        -0.0855 
      7 S7         29.9246   -2.0608    0.1316 S.3       12 UNK        -0.2931 
      8 C8         31.5269   -2.0703   -0.7418 C.3       12 UNK         0.0378 
      9 C9         31.3881   -1.5594   -2.1690 C.ar      12 UNK        -0.0802 
     10 C10        31.6371   -0.2157   -2.4690 C.ar      12 UNK        -0.0944 
     11 C11        31.4706    0.2696   -3.7709 C.ar      12 UNK        -0.0787 
     12 C12        31.0100   -0.6027   -4.7650 C.ar      12 UNK        -0.0862 
     13 C13        30.7856   -1.9516   -4.4836 C.ar      12 UNK        -0.0733 
     14 C14        30.9973   -2.4293   -3.1901 C.ar      12 UNK        -0.0832 
     15 C15        30.3069   -2.8904   -5.5754 C.3       12 UNK         0.0240 
     16 S16        28.5126   -3.1738   -5.4427 S.3       12 UNK        -0.2522 
     17 C17        28.0267   -3.1345   -7.2002 C.3       12 UNK        -0.0967 
     18 CA         27.3004   -1.8409   -7.6462 C.3       5 UNK         0.0660 
     19 N          25.9405   -1.7471   -7.1063 N.am      5 UNK        -0.4015 
     20 C          24.9666   -1.0373   -7.6940 C.2       4 UNK         0.4946 
     21 O          25.1255   -0.3931   -8.7316 O.2       4 UNK        -0.5353 
     22 CA         23.5961   -1.0138   -6.9971 C.3       4 UNK         0.0277 
     23 CB         22.8255   -2.3162   -7.2678 C.3       4 UNK        -0.1981 
     24 N          23.6714   -0.7757   -5.5528 N.am      4 UNK        -0.4209 
     25 C          24.1951    0.3197   -4.9834 C.2       3 UNK         0.4942 
     26 O          24.7053    1.2377   -5.6222 O.2       3 UNK        -0.5208 
     27 CA         24.1520    0.4222   -3.4485 C.3       3 UNK         0.0250 
     28 CB         23.0006    1.3408   -3.0089 C.3       3 UNK        -0.1990 
     29 N          24.0335   -0.8666   -2.7595 N.am      3 UNK        -0.4232 
     30 C          24.9877   -1.8062   -2.7428 C.2       2 UNK         0.4993 
     31 O          26.0518   -1.7123   -3.3577 O.2       2 UNK        -0.5286 
     32 CA         24.6668   -3.0853   -1.9523 C.3       2 UNK         0.0209 
     33 CB         23.9989   -4.1241   -2.8687 C.3       2 UNK        -0.1931 
     34 N          25.8659   -3.6780   -1.3587 N.am      2 UNK        -0.4546 
     35 C          26.5633   -3.1493   -0.3425 C.2       1 UNK         0.5154 
     36 O          26.2297   -2.1255    0.2557 O.2       1 UNK        -0.5181 
     37 C          28.1125   -0.5469   -7.4079 C.2       5 UNK         0.5014 
     38 O          29.0008   -0.2376   -8.2041 O.2       5 UNK        -0.5248 
     39 N          27.7730    0.2062   -6.3499 N.am      6 UNK        -0.4434 
     40 CA         28.3138    1.5370   -6.0712 C.3       6 UNK         0.0363 
     41 CB         28.0012    1.9415   -4.6224 C.3       6 UNK        -0.1936 
     42 C          27.7958    2.5812   -7.0710 C.2       6 UNK         0.5081 
     43 O          28.5896    3.3713   -7.5784 O.2       6 UNK        -0.5248 
     44 N          26.4943    2.5318   -7.3902 N.am      7 UNK        -0.4718 
     45 CA         25.8547    3.3468   -8.4292 C.3       7 UNK         0.0273 
     46 CB         24.3316    3.1501   -8.3748 C.3       7 UNK        -0.1935 
     47 C          26.3954    3.0497   -9.8394 C.2       7 UNK         0.5018 
     48 O          26.5418    3.9748  -10.6385 O.2       7 UNK        -0.5186 
     49 N          26.7291    1.7776  -10.1011 N.am      8 UNK        -0.4240 
     50 CA         27.4287    1.3245  -11.3078 C.3       8 UNK         0.0235 
     51 CB         27.2424   -0.1949  -11.4537 C.3       8 UNK        -0.2000 
     52 C          28.9301    1.6832  -11.3309 C.2       8 UNK         0.4941 
     53 O          29.5646    1.4911  -12.3690 O.2       8 UNK        -0.5273 
     54 N          29.4721    2.1770  -10.2058 N.am      9 UNK        -0.4262 
     55 CA         30.8703    2.5504   -9.9665 C.3       9 UNK         0.0264 
     56 CB         31.2776    3.7564  -10.8397 C.3       9 UNK        -0.1955 
     57 C          31.8487    1.3653  -10.0769 C.2       9 UNK         0.5031 
     58 O          32.9866    1.5483  -10.5132 O.2       9 UNK        -0.5390 
     59 N          31.4121    0.1747   -9.6446 N.am      10 UNK        -0.4204 
     60 CA         32.2013   -1.0610   -9.6332 C.3       10 UNK         0.0237 
     61 CB         31.2732   -2.2397   -9.9797 C.3       10 UNK        -0.1985 
     62 C          32.9345   -1.2616   -8.2907 C.2       10 UNK         0.4970 
     63 O          33.0785   -2.3972   -7.8348 O.2       10 UNK        -0.4914 
     64 N          33.3580   -0.1572   -7.6663 N.am      11 UNK        -0.4285 
     65 CA         34.0399   -0.1159   -6.3669 C.3       11 UNK         0.1007 
     66 C          35.4879   -0.6722   -6.4268 C.2       11 UNK         0.5703 
     67 N          35.9878   -1.2165   -5.3255 N.am      11 UNK        -0.7361 
     68 O          36.1741   -0.5807   -7.4436 O.2       11 UNK        -0.4986 
     69 C69        34.0143    1.3114   -5.7533 C.3       12 UNK        -0.0947 
     70 S70        32.3585    2.0873   -5.7536 S.3       12 UNK        -0.2240 
     71 C71        31.7624    1.7421   -4.0615 C.3       12 UNK         0.0194 
     72 H72        25.1481   -4.9916    1.4523 H         1 UNK         0.0906 
     73 H73        25.5533   -6.3765    2.4575 H         1 UNK         0.0906 
     74 H74        26.5771   -4.9525    2.5021 H         1 UNK         0.0906 
     75 H75        28.1728   -5.8290   -0.7366 H         1 UNK         0.3140 
     76 H76        27.9670   -3.7151    1.1726 H         1 UNK         0.1085 
     77 H77        29.8021   -4.2836   -0.7098 H         1 UNK         0.0836 
     78 H78        28.8349   -3.2192   -1.6933 H         1 UNK         0.0836 
     79 H79        32.2304   -1.4453   -0.1895 H         1 UNK         0.0731 
     80 H80        31.9489   -3.0765   -0.7368 H         1 UNK         0.0731 
     81 H81        31.9537    0.4562   -1.6828 H         1 UNK         0.1312 
     82 H82        30.8466   -0.2441   -5.7710 H         1 UNK         0.1406 
     83 H83        30.8210   -3.4739   -2.9743 H         1 UNK         0.1631 
     84 H84        30.5594   -2.4702   -6.5497 H         1 UNK         0.0717 
     85 H85        30.8310   -3.8449   -5.5101 H         1 UNK         0.0717 
     86 H86        28.8989   -3.3107   -7.8297 H         1 UNK         0.0934 
     87 H87        27.3795   -3.9939   -7.3829 H         1 UNK         0.0934 
     88 H88        27.1984   -1.9270   -8.7297 H         1 UNK         0.0739 
     89 H89        25.7597   -2.2248   -6.2343 H         1 UNK         0.3093 
     90 H90        23.0279   -0.1885   -7.4320 H         1 UNK         0.0818 
     91 H91        21.8084   -2.2635   -6.8787 H         1 UNK         0.0819 
     92 H92        22.7493   -2.5084   -8.3392 H         1 UNK         0.0819 
     93 H93        23.3137   -3.1804   -6.8157 H         1 UNK         0.0819 
     94 H94        23.2660   -1.4766   -4.9508 H         1 UNK         0.3041 
     95 H95        25.0912    0.8810   -3.1321 H         1 UNK         0.0784 
     96 H96        23.0798    2.3200   -3.4839 H         1 UNK         0.0793 
     97 H97        22.0275    0.9272   -3.2767 H         1 UNK         0.0793 
     98 H98        23.0124    1.5055   -1.9312 H         1 UNK         0.0793 
     99 H99        23.1792   -1.0246   -2.2438 H         1 UNK         0.3024 
    100 H100       23.9789   -2.8345   -1.1414 H         1 UNK         0.1171 
    101 H101       23.7405   -5.0300   -2.3197 H         1 UNK         0.0786 
    102 H102       23.0748   -3.7347   -3.2979 H         1 UNK         0.0786 
    103 H103       24.6493   -4.4082   -3.6975 H         1 UNK         0.0786 
    104 H104       26.2224   -4.5151   -1.7959 H         1 UNK         0.2977 
    105 H105       27.0393   -0.1241   -5.7393 H         1 UNK         0.3127 
    106 H106       29.3979    1.4942   -6.1823 H         1 UNK         0.0770 
    107 H107       26.9303    2.0291   -4.4435 H         1 UNK         0.0814 
    108 H108       28.4474    2.9082   -4.3865 H         1 UNK         0.0814 
    109 H109       28.4022    1.2159   -3.9140 H         1 UNK         0.0814 
    110 H110       25.8872    1.9005   -6.8698 H         1 UNK         0.2983 
    111 H111       26.0727    4.3941   -8.2089 H         1 UNK         0.0947 
    112 H112       23.8305    3.7677   -9.1212 H         1 UNK         0.0806 
    113 H113       23.9312    3.4291   -7.3999 H         1 UNK         0.0806 
    114 H114       24.0510    2.1138   -8.5653 H         1 UNK         0.0806 
    115 H115       26.4867    1.0683   -9.4172 H         1 UNK         0.3000 
    116 H116       26.9659    1.8089  -12.1702 H         1 UNK         0.0850 
    117 H117       27.6430   -0.5467  -12.4052 H         1 UNK         0.0810 
    118 H118       26.1891   -0.4749  -11.4218 H         1 UNK         0.0810 
    119 H119       27.7614   -0.7390  -10.6653 H         1 UNK         0.0810 
    120 H120       28.8638    2.3028   -9.4052 H         1 UNK         0.3040 
    121 H121       30.9184    2.8732   -8.9255 H         1 UNK         0.0766 
    122 H122       30.5766    4.5830  -10.7240 H         1 UNK         0.0812 
    123 H123       31.3190    3.4955  -11.8976 H         1 UNK         0.0812 
    124 H124       32.2637    4.1278  -10.5583 H         1 UNK         0.0812 
    125 H125       30.4827    0.1140   -9.2273 H         1 UNK         0.3205 
    126 H126       32.9702   -1.0105  -10.4068 H         1 UNK         0.0754 
    127 H127       31.8306   -3.1743  -10.0542 H         1 UNK         0.0769 
    128 H128       30.7761   -2.0831  -10.9373 H         1 UNK         0.0769 
    129 H129       30.5026   -2.3753   -9.2223 H         1 UNK         0.0769 
    130 H130       33.2376    0.7314   -8.1280 H         1 UNK         0.2981 
    131 H131       33.4875   -0.7774   -5.7000 H         1 UNK         0.0541 
    132 H132       35.4391   -1.2866   -4.4828 H         1 UNK         0.3459 
    133 H133       36.9317   -1.5702   -5.3394 H         1 UNK         0.3459 
    134 H134       34.6792    1.9723   -6.3126 H         1 UNK         0.0612 
    135 H135       34.3972    1.2933   -4.7314 H         1 UNK         0.0612 
    136 H136       32.4970    2.1289   -3.3535 H         1 UNK         0.0624 
    137 H137       30.8486    2.3125   -3.8965 H         1 UNK         0.0624 
@<TRIPOS>BOND
     1    1    2 1    
     2    1   72 1    
     3    1   73 1    
     4    1   74 1    
     5    2    3 2    
     6    2    4 am   BACKBONE|DICT|INTERRES
     7    4    5 1    
     8    4   75 1    
     9    5    6 1    
    10    5   35 1    
    11    5   76 1    
    12    6    7 1    
    13    6   77 1    
    14    6   78 1    
    15    7    8 1    
    16    8    9 1    
    17    8   79 1    
    18    8   80 1    
    19    9   10 ar   
    20    9   14 ar   
    21   10   11 ar   
    22   10   81 1    
    23   11   12 ar   
    24   11   71 1    
    25   12   13 ar   
    26   12   82 1    
    27   13   14 ar   
    28   13   15 1    
    29   14   83 1    
    30   15   16 1    
    31   15   84 1    
    32   15   85 1    
    33   16   17 1    
    34   17   18 1    
    35   17   86 1    
    36   17   87 1    
    37   18   19 1    
    38   18   37 1    
    39   18   88 1    
    40   19   20 am   BACKBONE|DICT|INTERRES
    41   19   89 1    
    42   20   21 2    
    43   20   22 1    
    44   22   23 1    
    45   22   24 1    
    46   22   90 1    
    47   23   91 1    
    48   23   92 1    
    49   23   93 1    
    50   24   25 am   BACKBONE|DICT|INTERRES
    51   24   94 1    
    52   25   26 2    
    53   25   27 1    
    54   27   28 1    
    55   27   29 1    
    56   27   95 1    
    57   28   96 1    
    58   28   97 1    
    59   28   98 1    
    60   29   30 am   BACKBONE|DICT|INTERRES
    61   29   99 1    
    62   30   31 2    
    63   30   32 1    
    64   32   33 1    
    65   32   34 1    
    66   32  100 1    
    67   33  101 1    
    68   33  102 1    
    69   33  103 1    
    70   34   35 am   BACKBONE|DICT|INTERRES
    71   34  104 1    
    72   35   36 2    
    73   37   38 2    
    74   37   39 am   BACKBONE|DICT|INTERRES
    75   39   40 1    
    76   39  105 1    
    77   40   41 1    
    78   40   42 1    
    79   40  106 1    
    80   41  107 1    
    81   41  108 1    
    82   41  109 1    
    83   42   43 2    
    84   42   44 am   BACKBONE|DICT|INTERRES
    85   44   45 1    
    86   44  110 1    
    87   45   46 1    
    88   45   47 1    
    89   45  111 1    
    90   46  112 1    
    91   46  113 1    
    92   46  114 1    
    93   47   48 2    
    94   47   49 am   BACKBONE|DICT|INTERRES
    95   49   50 1    
    96   49  115 1    
    97   50   51 1    
    98   50   52 1    
    99   50  116 1    
   100   51  117 1    
   101   51  118 1    
   102   51  119 1    
   103   52   53 2    
   104   52   54 am   BACKBONE|DICT|INTERRES
   105   54   55 1    
   106   54  120 1    
   107   55   56 1    
   108   55   57 1    
   109   55  121 1    
   110   56  122 1    
   111   56  123 1    
   112   56  124 1    
   113   57   58 2    
   114   57   59 am   BACKBONE|DICT|INTERRES
   115   59   60 1    
   116   59  125 1    
   117   60   61 1    
   118   60   62 1    
   119   60  126 1    
   120   61  127 1    
   121   61  128 1    
   122   61  129 1    
   123   62   63 2    
   124   62   64 am   BACKBONE|DICT|INTERRES
   125   64   65 1    
   126   64  130 1    
   127   65   66 1    
   128   65   69 1    
   129   65  131 1    
   130   66   67 am   BACKBONE|DICT|INTERRES
   131   66   68 2    
   132   67  132 1    
   133   67  133 1    
   134   69   70 1    
   135   69  134 1    
   136   69  135 1    
   137   70   71 1    
   138   71  136 1    
   139   71  137 1    
@<TRIPOS>SUBSTRUCTURE
     1 UNK         1 GROUP             0       ****    0 ROOT    
