@<TRIPOS>MOLECULE
3R137
137   139    1
SMALL
USER_CHARGES


@<TRIPOS>ATOM
      1 CA         25.7126   -0.7262    0.1155 C.3       0 UNK        -0.2020 
      2 C          26.2907   -1.5781   -1.0035 C.2       0 UNK         0.4855 
      3 O          26.1823   -1.2063   -2.1739 O.2       0 UNK        -0.5197 
      4 N          26.8904   -2.7268   -0.6581 N.am      1 UNK        -0.4892 
      5 CA         27.5017   -3.6672   -1.6089 C.3       1 UNK         0.0835 
      6 C6         28.3743   -4.7450   -0.9219 C.3       12 UNK        -0.0855 
      7 S7         29.6810   -4.0444    0.1408 S.3       12 UNK        -0.2931 
      8 C8         31.1194   -4.0026   -0.9868 C.3       12 UNK         0.0378 
      9 C9         31.0915   -2.8393   -1.9760 C.ar      12 UNK        -0.0802 
     10 C10        31.4425   -3.0427   -3.3146 C.ar      12 UNK        -0.0944 
     11 C11        31.4736   -1.9715   -4.2153 C.ar      12 UNK        -0.0787 
     12 C12        31.1235   -0.6897   -3.7780 C.ar      12 UNK        -0.0862 
     13 C13        30.7798   -0.4709   -2.4408 C.ar      12 UNK        -0.0733 
     14 C14        30.7783   -1.5462   -1.5470 C.ar      12 UNK        -0.0832 
     15 C15        30.4462    0.9252   -1.9351 C.3       12 UNK         0.0240 
     16 S16        28.7573    0.9899   -1.2592 S.3       12 UNK        -0.2522 
     17 C17        27.8280    2.0748   -2.3913 C.3       12 UNK        -0.0967 
     18 CA         27.9474    1.7793   -3.9085 C.3       5 UNK         0.0660 
     19 N          27.5802    0.4056   -4.2804 N.am      5 UNK        -0.4015 
     20 C          27.8268   -0.1134   -5.4958 C.2       4 UNK         0.4946 
     21 O          28.4510    0.4825   -6.3738 O.2       4 UNK        -0.5353 
     22 CA         27.2380   -1.4936   -5.8314 C.3       4 UNK         0.0277 
     23 CB         28.2457   -2.6069   -5.5270 C.3       4 UNK        -0.1981 
     24 N          25.9651   -1.7600   -5.1598 N.am      4 UNK        -0.4209 
     25 C          24.8361   -1.0758   -5.3933 C.2       3 UNK         0.4942 
     26 O          24.7654   -0.1742   -6.2297 O.2       3 UNK        -0.5208 
     27 CA         23.6053   -1.3793   -4.5174 C.3       3 UNK         0.0250 
     28 CB         22.2952   -1.4075   -5.3328 C.3       3 UNK        -0.1990 
     29 N          23.7485   -2.5610   -3.6558 N.am      3 UNK        -0.4232 
     30 C          23.7380   -3.8576   -4.0025 C.2       2 UNK         0.4993 
     31 O          23.5575   -4.2708   -5.1487 O.2       2 UNK        -0.5286 
     32 CA         24.0191   -4.8452   -2.8504 C.3       2 UNK         0.0209 
     33 CB         24.1162   -6.3156   -3.3133 C.3       2 UNK        -0.1931 
     34 N          25.2064   -4.4467   -2.0777 N.am      2 UNK        -0.4546 
     35 C          26.4637   -4.3314   -2.5385 C.2       1 UNK         0.5154 
     36 O          26.8128   -4.6858   -3.6620 O.2       1 UNK        -0.5181 
     37 C          27.1313    2.8310   -4.6901 C.2       5 UNK         0.5014 
     38 O          27.6708    3.8911   -5.0086 O.2       5 UNK        -0.5248 
     39 N          25.8550    2.5303   -4.9771 N.am      6 UNK        -0.4434 
     40 CA         24.9632    3.3901   -5.7590 C.3       6 UNK         0.0363 
     41 CB         23.4991    2.9841   -5.5229 C.3       6 UNK        -0.1936 
     42 C          25.3115    3.3612   -7.2552 C.2       6 UNK         0.5081 
     43 O          25.2649    4.4056   -7.9057 O.2       6 UNK        -0.5248 
     44 N          25.6782    2.1765   -7.7663 N.am      7 UNK        -0.4718 
     45 CA         26.1946    1.9832   -9.1237 C.3       7 UNK         0.0273 
     46 CB         26.2677    0.4807   -9.4347 C.3       7 UNK        -0.1935 
     47 C          27.5678    2.6447   -9.3332 C.2       7 UNK         0.5018 
     48 O          27.8133    3.1944  -10.4078 O.2       7 UNK        -0.5186 
     49 N          28.4326    2.5718   -8.3092 N.am      8 UNK        -0.4240 
     50 CA         29.7780    3.1492   -8.1746 C.3       8 UNK         0.0235 
     51 CB         29.7518    4.6848   -8.2963 C.3       8 UNK        -0.2000 
     52 C          30.8322    2.5281   -9.1063 C.2       8 UNK         0.4941 
     53 O          31.9137    2.1726   -8.6409 O.2       8 UNK        -0.5273 
     54 N          30.4920    2.3656  -10.3900 N.am      9 UNK        -0.4262 
     55 CA         31.3095    1.7263  -11.4262 C.3       9 UNK         0.0264 
     56 CB         30.7752    2.1545  -12.8037 C.3       9 UNK        -0.1955 
     57 C          31.3646    0.1885  -11.3159 C.2       9 UNK         0.5031 
     58 O          32.0696   -0.4446  -12.1028 O.2       9 UNK        -0.5390 
     59 N          30.6203   -0.3887  -10.3618 N.am      10 UNK        -0.4204 
     60 CA         30.5274   -1.8245  -10.0870 C.3       10 UNK         0.0237 
     61 CB         29.3947   -2.0591   -9.0750 C.3       10 UNK        -0.1985 
     62 C          31.8365   -2.4750   -9.5988 C.2       10 UNK         0.4970 
     63 O          31.9705   -3.6931   -9.7225 O.2       10 UNK        -0.4914 
     64 N          32.7712   -1.6780   -9.0693 N.am      11 UNK        -0.4285 
     65 CA         34.1120   -2.1106   -8.6613 C.3       11 UNK         0.1007 
     66 C          35.1407   -0.9509   -8.7556 C.2       11 UNK         0.5703 
     67 N          36.4133   -1.2222   -8.4981 N.am      11 UNK        -0.7361 
     68 O          34.8046    0.1881   -9.0757 O.2       11 UNK        -0.4986 
     69 C69        34.1141   -2.8691   -7.3029 C.3       12 UNK        -0.0947 
     70 S70        33.6847   -1.8511   -5.8487 S.3       12 UNK        -0.2240 
     71 C71        31.9108   -2.1995   -5.6542 C.3       12 UNK         0.0194 
     72 H72        24.6282   -0.6748    0.0251 H         1 UNK         0.0906 
     73 H73        25.9557   -1.1261    1.0995 H         1 UNK         0.0906 
     74 H74        26.1059    0.2880    0.0568 H         1 UNK         0.0906 
     75 H75        26.9838   -2.9713    0.3181 H         1 UNK         0.3140 
     76 H76        28.1593   -3.0766   -2.2491 H         1 UNK         0.1085 
     77 H77        28.8371   -5.3953   -1.6673 H         1 UNK         0.0836 
     78 H78        27.7543   -5.3952   -0.3016 H         1 UNK         0.0836 
     79 H79        31.1971   -4.9580   -1.5080 H         1 UNK         0.0731 
     80 H80        32.0241   -3.9113   -0.3844 H         1 UNK         0.0731 
     81 H81        31.7170   -4.0324   -3.6536 H         1 UNK         0.1312 
     82 H82        31.1433    0.1375   -4.4745 H         1 UNK         0.1406 
     83 H83        30.5268   -1.3722   -0.5094 H         1 UNK         0.1631 
     84 H84        30.5945    1.6815   -2.7050 H         1 UNK         0.0717 
     85 H85        31.1436    1.1782   -1.1355 H         1 UNK         0.0717 
     86 H86        26.7815    2.0269   -2.0830 H         1 UNK         0.0934 
     87 H87        28.1505    3.0976   -2.1841 H         1 UNK         0.0934 
     88 H88        28.9860    1.9243   -4.2078 H         1 UNK         0.0739 
     89 H89        27.0921   -0.1502   -3.5819 H         1 UNK         0.3093 
     90 H90        27.0442   -1.5121   -6.9052 H         1 UNK         0.0818 
     91 H91        27.8552   -3.5850   -5.8071 H         1 UNK         0.0819 
     92 H92        28.5165   -2.6323   -4.4726 H         1 UNK         0.0819 
     93 H93        29.1637   -2.4624   -6.0915 H         1 UNK         0.0819 
     94 H94        25.9620   -2.4700   -4.4410 H         1 UNK         0.3041 
     95 H95        23.5333   -0.5351   -3.8300 H         1 UNK         0.0784 
     96 H96        22.1198   -0.4487   -5.8223 H         1 UNK         0.0793 
     97 H97        22.3187   -2.1659   -6.1155 H         1 UNK         0.0793 
     98 H98        21.4337   -1.6063   -4.6955 H         1 UNK         0.0793 
     99 H99        23.9612   -2.3454   -2.6913 H         1 UNK         0.3024 
    100 H100       23.1647   -4.7740   -2.1747 H         1 UNK         0.1171 
    101 H101       24.3070   -6.9839   -2.4737 H         1 UNK         0.0786 
    102 H102       23.1838   -6.6380   -3.7783 H         1 UNK         0.0786 
    103 H103       24.9091   -6.4638   -4.0469 H         1 UNK         0.0786 
    104 H104       25.0341   -4.1335   -1.1319 H         1 UNK         0.2977 
    105 H105       25.4978    1.6219   -4.7193 H         1 UNK         0.3127 
    106 H106       25.0861    4.4177   -5.4094 H         1 UNK         0.0770 
    107 H107       23.2922    1.9727   -5.8723 H         1 UNK         0.0814 
    108 H108       22.8225    3.6535   -6.0557 H         1 UNK         0.0814 
    109 H109       23.2377    3.0351   -4.4659 H         1 UNK         0.0814 
    110 H110       25.5975    1.3509   -7.1793 H         1 UNK         0.2983 
    111 H111       25.4932    2.4461   -9.8213 H         1 UNK         0.0947 
    112 H112       26.6177    0.3076  -10.4533 H         1 UNK         0.0806 
    113 H113       25.2898    0.0078   -9.3410 H         1 UNK         0.0806 
    114 H114       26.9524   -0.0331   -8.7610 H         1 UNK         0.0806 
    115 H115       28.1613    1.9872   -7.5217 H         1 UNK         0.3000 
    116 H116       30.0873    2.9107   -7.1553 H         1 UNK         0.0850 
    117 H117       30.7372    5.1071   -8.0955 H         1 UNK         0.0810 
    118 H118       29.0581    5.1231   -7.5782 H         1 UNK         0.0810 
    119 H119       29.4551    5.0135   -9.2926 H         1 UNK         0.0810 
    120 H120       29.5654    2.6894  -10.6631 H         1 UNK         0.3040 
    121 H121       32.3342    2.0907  -11.3266 H         1 UNK         0.0766 
    122 H122       31.3822    1.7376  -13.6086 H         1 UNK         0.0812 
    123 H123       30.7933    3.2387  -12.9166 H         1 UNK         0.0812 
    124 H124       29.7495    1.8179  -12.9599 H         1 UNK         0.0812 
    125 H125       30.0821    0.2206   -9.7644 H         1 UNK         0.3205 
    126 H126       30.2587   -2.3226  -11.0209 H         1 UNK         0.0754 
    127 H127       29.5333   -1.4588   -8.1757 H         1 UNK         0.0769 
    128 H128       29.3428   -3.1053   -8.7695 H         1 UNK         0.0769 
    129 H129       28.4259   -1.8040   -9.5036 H         1 UNK         0.0769 
    130 H130       32.6225   -0.6778   -9.0336 H         1 UNK         0.2981 
    131 H131       34.4466   -2.8178   -9.4229 H         1 UNK         0.0541 
    132 H132       36.7078   -2.1502   -8.2376 H         1 UNK         0.3459 
    133 H133       37.0926   -0.4801   -8.5598 H         1 UNK         0.3459 
    134 H134       33.4455   -3.7289   -7.3542 H         1 UNK         0.0612 
    135 H135       35.1010   -3.2961   -7.1198 H         1 UNK         0.0612 
    136 H136       31.6914   -3.2265   -5.9490 H         1 UNK         0.0624 
    137 H137       31.3494   -1.5530   -6.3300 H         1 UNK         0.0624 
@<TRIPOS>BOND
     1    1    2 1    
     2    1   72 1    
     3    1   73 1    
     4    1   74 1    
     5    2    3 2    
     6    2    4 am   BACKBONE|DICT|INTERRES
     7    4    5 1    
     8    4   75 1    
     9    5    6 1    
    10    5   35 1    
    11    5   76 1    
    12    6    7 1    
    13    6   77 1    
    14    6   78 1    
    15    7    8 1    
    16    8    9 1    
    17    8   79 1    
    18    8   80 1    
    19    9   10 ar   
    20    9   14 ar   
    21   10   11 ar   
    22   10   81 1    
    23   11   12 ar   
    24   11   71 1    
    25   12   13 ar   
    26   12   82 1    
    27   13   14 ar   
    28   13   15 1    
    29   14   83 1    
    30   15   16 1    
    31   15   84 1    
    32   15   85 1    
    33   16   17 1    
    34   17   18 1    
    35   17   86 1    
    36   17   87 1    
    37   18   19 1    
    38   18   37 1    
    39   18   88 1    
    40   19   20 am   BACKBONE|DICT|INTERRES
    41   19   89 1    
    42   20   21 2    
    43   20   22 1    
    44   22   23 1    
    45   22   24 1    
    46   22   90 1    
    47   23   91 1    
    48   23   92 1    
    49   23   93 1    
    50   24   25 am   BACKBONE|DICT|INTERRES
    51   24   94 1    
    52   25   26 2    
    53   25   27 1    
    54   27   28 1    
    55   27   29 1    
    56   27   95 1    
    57   28   96 1    
    58   28   97 1    
    59   28   98 1    
    60   29   30 am   BACKBONE|DICT|INTERRES
    61   29   99 1    
    62   30   31 2    
    63   30   32 1    
    64   32   33 1    
    65   32   34 1    
    66   32  100 1    
    67   33  101 1    
    68   33  102 1    
    69   33  103 1    
    70   34   35 am   BACKBONE|DICT|INTERRES
    71   34  104 1    
    72   35   36 2    
    73   37   38 2    
    74   37   39 am   BACKBONE|DICT|INTERRES
    75   39   40 1    
    76   39  105 1    
    77   40   41 1    
    78   40   42 1    
    79   40  106 1    
    80   41  107 1    
    81   41  108 1    
    82   41  109 1    
    83   42   43 2    
    84   42   44 am   BACKBONE|DICT|INTERRES
    85   44   45 1    
    86   44  110 1    
    87   45   46 1    
    88   45   47 1    
    89   45  111 1    
    90   46  112 1    
    91   46  113 1    
    92   46  114 1    
    93   47   48 2    
    94   47   49 am   BACKBONE|DICT|INTERRES
    95   49   50 1    
    96   49  115 1    
    97   50   51 1    
    98   50   52 1    
    99   50  116 1    
   100   51  117 1    
   101   51  118 1    
   102   51  119 1    
   103   52   53 2    
   104   52   54 am   BACKBONE|DICT|INTERRES
   105   54   55 1    
   106   54  120 1    
   107   55   56 1    
   108   55   57 1    
   109   55  121 1    
   110   56  122 1    
   111   56  123 1    
   112   56  124 1    
   113   57   58 2    
   114   57   59 am   BACKBONE|DICT|INTERRES
   115   59   60 1    
   116   59  125 1    
   117   60   61 1    
   118   60   62 1    
   119   60  126 1    
   120   61  127 1    
   121   61  128 1    
   122   61  129 1    
   123   62   63 2    
   124   62   64 am   BACKBONE|DICT|INTERRES
   125   64   65 1    
   126   64  130 1    
   127   65   66 1    
   128   65   69 1    
   129   65  131 1    
   130   66   67 am   BACKBONE|DICT|INTERRES
   131   66   68 2    
   132   67  132 1    
   133   67  133 1    
   134   69   70 1    
   135   69  134 1    
   136   69  135 1    
   137   70   71 1    
   138   71  136 1    
   139   71  137 1    
@<TRIPOS>SUBSTRUCTURE
     1 UNK         1 GROUP             0       ****    0 ROOT    
