@<TRIPOS>MOLECULE
3R137
137   139    1
SMALL
USER_CHARGES


@<TRIPOS>ATOM
      1 CA         24.9128   -5.5150   -3.4831 C.3       0 UNK        -0.2020 
      2 C          25.5746   -4.2341   -3.0013 C.2       0 UNK         0.4855 
      3 O          25.4888   -3.2115   -3.6807 O.2       0 UNK        -0.5197 
      4 N          26.2263   -4.2754   -1.8295 N.am      1 UNK        -0.4892 
      5 CA         26.9391   -3.1556   -1.1865 C.3       1 UNK         0.0835 
      6 C6         28.0708   -2.5771   -2.0870 C.3       12 UNK        -0.0855 
      7 S7         29.6070   -2.2081   -1.1723 S.3       12 UNK        -0.2931 
      8 C8         30.6451   -3.6587   -1.5546 C.3       12 UNK         0.0378 
      9 C9         31.0233   -3.7211   -3.0285 C.ar      12 UNK        -0.0802 
     10 C10        32.0248   -2.8895   -3.5362 C.ar      12 UNK        -0.0944 
     11 C11        32.3531   -2.9182   -4.8956 C.ar      12 UNK        -0.0787 
     12 C12        31.6702   -3.7915   -5.7502 C.ar      12 UNK        -0.0862 
     13 C13        30.6740   -4.6376   -5.2499 C.ar      12 UNK        -0.0733 
     14 C14        30.3672   -4.6071   -3.8870 C.ar      12 UNK        -0.0832 
     15 C15        29.9344   -5.6011   -6.1693 C.3       12 UNK         0.0240 
     16 S16        28.7886   -4.7640   -7.3125 S.3       12 UNK        -0.2522 
     17 C17        27.6031   -3.9323   -6.1948 C.3       12 UNK        -0.0967 
     18 CA         27.1499   -2.5633   -6.7585 C.3       5 UNK         0.0660 
     19 N          25.8798   -2.1056   -6.1886 N.am      5 UNK        -0.4015 
     20 C          25.1092   -1.1698   -6.7602 C.2       4 UNK         0.4946 
     21 O          25.3971   -0.5987   -7.8142 O.2       4 UNK        -0.5353 
     22 CA         23.8117   -0.7890   -6.0283 C.3       4 UNK         0.0277 
     23 CB         22.8561   -1.9902   -5.9226 C.3       4 UNK        -0.1981 
     24 N          24.0058   -0.1993   -4.6998 N.am      4 UNK        -0.4209 
     25 C          24.7951    0.8374   -4.3908 C.2       3 UNK         0.4942 
     26 O          25.5734    1.3635   -5.1839 O.2       3 UNK        -0.5208 
     27 CA         24.7119    1.4118   -2.9635 C.3       3 UNK         0.0250 
     28 CB         23.6625    2.5376   -2.8912 C.3       3 UNK        -0.1990 
     29 N          24.5155    0.4290   -1.8889 N.am      3 UNK        -0.4232 
     30 C          23.4679   -0.3662   -1.6319 C.2       2 UNK         0.4993 
     31 O          22.4536   -0.4131   -2.3300 O.2       2 UNK        -0.5286 
     32 CA         23.6219   -1.3113   -0.4229 C.3       2 UNK         0.0209 
     33 CB         22.3170   -2.0559   -0.0837 C.3       2 UNK        -0.1931 
     34 N          24.6775   -2.2960   -0.6700 N.am      2 UNK        -0.4546 
     35 C          25.9950   -2.0474   -0.6584 C.2       1 UNK         0.5154 
     36 O          26.4609   -0.9705   -0.2799 O.2       1 UNK        -0.5181 
     37 C          28.2457   -1.4858   -6.6481 C.2       5 UNK         0.5014 
     38 O          29.0674   -1.3781   -7.5571 O.2       5 UNK        -0.5248 
     39 N          28.2098   -0.6723   -5.5809 N.am      6 UNK        -0.4434 
     40 CA         29.1414    0.4383   -5.3696 C.3       6 UNK         0.0363 
     41 CB         28.9432    1.0475   -3.9737 C.3       6 UNK        -0.1936 
     42 C          29.0548    1.5123   -6.4672 C.2       6 UNK         0.5081 
     43 O          30.0895    2.0049   -6.9213 O.2       6 UNK        -0.5248 
     44 N          27.8247    1.8240   -6.8955 N.am      7 UNK        -0.4718 
     45 CA         27.5353    2.6917   -8.0334 C.3       7 UNK         0.0273 
     46 CB         26.0606    3.1227   -7.9902 C.3       7 UNK        -0.1935 
     47 C          27.8692    2.0205   -9.3743 C.2       7 UNK         0.5018 
     48 O          28.4943    2.6616  -10.2184 O.2       7 UNK        -0.5186 
     49 N          27.4636    0.7521   -9.5491 N.am      8 UNK        -0.4240 
     50 CA         27.6617   -0.0157  -10.7854 C.3       8 UNK         0.0235 
     51 CB         26.8834   -1.3385  -10.7189 C.3       8 UNK        -0.2000 
     52 C          29.1395   -0.2765  -11.1219 C.2       8 UNK         0.4941 
     53 O          29.5307   -0.1124  -12.2781 O.2       8 UNK        -0.5273 
     54 N          29.9373   -0.6539  -10.1132 N.am      9 UNK        -0.4262 
     55 CA         31.3861   -0.8442  -10.2324 C.3       9 UNK         0.0264 
     56 CB         31.8682   -1.7624   -9.0966 C.3       9 UNK        -0.1955 
     57 C          32.1695    0.4812  -10.2182 C.2       9 UNK         0.5031 
     58 O          33.3546    0.4747  -10.5533 O.2       9 UNK        -0.5390 
     59 N          31.5098    1.5771   -9.8109 N.am      10 UNK        -0.4204 
     60 CA         32.0334    2.9380   -9.6392 C.3       10 UNK         0.0237 
     61 CB         32.4734    3.5375  -10.9917 C.3       10 UNK        -0.1985 
     62 C          33.1199    3.0542   -8.5503 C.2       10 UNK         0.4970 
     63 O          33.9002    4.0081   -8.5689 O.2       10 UNK        -0.4914 
     64 N          33.1436    2.0979   -7.6146 N.am      11 UNK        -0.4285 
     65 CA         34.0197    2.0910   -6.4369 C.3       11 UNK         0.1007 
     66 C          33.5081    2.9957   -5.2777 C.2       11 UNK         0.5703 
     67 N          32.2385    3.3896   -5.2555 N.am      11 UNK        -0.7361 
     68 O          34.2829    3.3593   -4.3959 O.2       11 UNK        -0.4986 
     69 C69        34.3297    0.6431   -5.9695 C.3       12 UNK        -0.0947 
     70 S70        32.8364   -0.2829   -5.4904 S.3       12 UNK        -0.2240 
     71 C71        33.4378   -1.9934   -5.4295 C.3       12 UNK         0.0194 
     72 H72        25.3780   -5.8537   -4.4079 H         1 UNK         0.0906 
     73 H73        24.9924   -6.3170   -2.7495 H         1 UNK         0.0906 
     74 H74        23.8555   -5.3386   -3.6790 H         1 UNK         0.0906 
     75 H75        26.2485   -5.1453   -1.3132 H         1 UNK         0.3140 
     76 H76        27.3949   -3.5898   -0.2951 H         1 UNK         0.1085 
     77 H77        28.3070   -3.2732   -2.8870 H         1 UNK         0.0836 
     78 H78        27.7467   -1.6734   -2.6061 H         1 UNK         0.0836 
     79 H79        31.5525   -3.6117   -0.9506 H         1 UNK         0.0731 
     80 H80        30.1227   -4.5665   -1.2484 H         1 UNK         0.0731 
     81 H81        32.5363   -2.2023   -2.8758 H         1 UNK         0.1312 
     82 H82        31.9077   -3.8119   -6.8048 H         1 UNK         0.1406 
     83 H83        29.6000   -5.2616   -3.4956 H         1 UNK         0.1631 
     84 H84        29.3771   -6.3403   -5.5918 H         1 UNK         0.0717 
     85 H85        30.6633   -6.1625   -6.7555 H         1 UNK         0.0717 
     86 H86        26.7434   -4.5957   -6.0939 H         1 UNK         0.0934 
     87 H87        28.0172   -3.8221   -5.1932 H         1 UNK         0.0934 
     88 H88        26.9616   -2.7100   -7.8230 H         1 UNK         0.0739 
     89 H89        25.6071   -2.5018   -5.2879 H         1 UNK         0.3093 
     90 H90        23.3201   -0.0277   -6.6372 H         1 UNK         0.0818 
     91 H91        21.8764   -1.6832   -5.5559 H         1 UNK         0.0819 
     92 H92        22.7039   -2.4579   -6.8963 H         1 UNK         0.0819 
     93 H93        23.2372   -2.7564   -5.2465 H         1 UNK         0.0819 
     94 H94        23.3853   -0.5241   -3.9625 H         1 UNK         0.3041 
     95 H95        25.6841    1.8642   -2.7618 H         1 UNK         0.0784 
     96 H96        23.8737    3.3132   -3.6288 H         1 UNK         0.0793 
     97 H97        22.6550    2.1702   -3.0887 H         1 UNK         0.0793 
     98 H98        23.6598    3.0150   -1.9113 H         1 UNK         0.0793 
     99 H99        25.3221    0.2939   -1.2847 H         1 UNK         0.3024 
    100 H100       23.8963   -0.7006    0.4407 H         1 UNK         0.1171 
    101 H101       21.9930   -2.7006   -0.9018 H         1 UNK         0.0786 
    102 H102       21.5079   -1.3524    0.1174 H         1 UNK         0.0786 
    103 H103       22.4339   -2.6756    0.8056 H         1 UNK         0.0786 
    104 H104       24.3818   -3.1919   -1.0295 H         1 UNK         0.2977 
    105 H105       27.4660   -0.7865   -4.9095 H         1 UNK         0.3127 
    106 H106       30.1409    0.0137   -5.4093 H         1 UNK         0.0770 
    107 H107       29.1106    0.3082   -3.1905 H         1 UNK         0.0814 
    108 H108       27.9422    1.4583   -3.8465 H         1 UNK         0.0814 
    109 H109       29.6523    1.8589   -3.8039 H         1 UNK         0.0814 
    110 H110       27.0229    1.4261   -6.4107 H         1 UNK         0.2983 
    111 H111       28.1546    3.5872   -7.9451 H         1 UNK         0.0947 
    112 H112       25.8191    3.7788   -8.8274 H         1 UNK         0.0806 
    113 H113       25.8358    3.6681   -7.0734 H         1 UNK         0.0806 
    114 H114       25.3873    2.2656   -8.0387 H         1 UNK         0.0806 
    115 H115       26.9229    0.3056   -8.8136 H         1 UNK         0.3000 
    116 H116       27.2416    0.5771  -11.6008 H         1 UNK         0.0850 
    117 H117       26.9457   -1.8735  -11.6675 H         1 UNK         0.0810 
    118 H118       25.8267   -1.1712  -10.5098 H         1 UNK         0.0810 
    119 H119       27.2805   -1.9991   -9.9494 H         1 UNK         0.0810 
    120 H120       29.5344   -0.8196   -9.1891 H         1 UNK         0.3040 
    121 H121       31.5973   -1.3399  -11.1822 H         1 UNK         0.0766 
    122 H122       32.9358   -1.9683   -9.1824 H         1 UNK         0.0812 
    123 H123       31.3483   -2.7206   -9.1137 H         1 UNK         0.0812 
    124 H124       31.7008   -1.3119   -8.1178 H         1 UNK         0.0812 
    125 H125       30.5368    1.4630   -9.5588 H         1 UNK         0.3205 
    126 H126       31.1917    3.5306   -9.2775 H         1 UNK         0.0754 
    127 H127       32.7123    4.5970  -10.8923 H         1 UNK         0.0769 
    128 H128       31.6813    3.4548  -11.7362 H         1 UNK         0.0769 
    129 H129       33.3598    3.0405  -11.3868 H         1 UNK         0.0769 
    130 H130       32.4240    1.3894   -7.6305 H         1 UNK         0.2981 
    131 H131       34.9751    2.5228   -6.7408 H         1 UNK         0.0541 
    132 H132       31.5839    3.0454   -5.9487 H         1 UNK         0.3459 
    133 H133       31.9193    3.9841   -4.5083 H         1 UNK         0.3459 
    134 H134       35.0251    0.6486   -5.1283 H         1 UNK         0.0612 
    135 H135       34.8305    0.0998   -6.7724 H         1 UNK         0.0612 
    136 H136       33.7565   -2.3004   -6.4268 H         1 UNK         0.0624 
    137 H137       34.3165   -2.0479   -4.7852 H         1 UNK         0.0624 
@<TRIPOS>BOND
     1    1    2 1    
     2    1   72 1    
     3    1   73 1    
     4    1   74 1    
     5    2    3 2    
     6    2    4 am   BACKBONE|DICT|INTERRES
     7    4    5 1    
     8    4   75 1    
     9    5    6 1    
    10    5   35 1    
    11    5   76 1    
    12    6    7 1    
    13    6   77 1    
    14    6   78 1    
    15    7    8 1    
    16    8    9 1    
    17    8   79 1    
    18    8   80 1    
    19    9   10 ar   
    20    9   14 ar   
    21   10   11 ar   
    22   10   81 1    
    23   11   12 ar   
    24   11   71 1    
    25   12   13 ar   
    26   12   82 1    
    27   13   14 ar   
    28   13   15 1    
    29   14   83 1    
    30   15   16 1    
    31   15   84 1    
    32   15   85 1    
    33   16   17 1    
    34   17   18 1    
    35   17   86 1    
    36   17   87 1    
    37   18   19 1    
    38   18   37 1    
    39   18   88 1    
    40   19   20 am   BACKBONE|DICT|INTERRES
    41   19   89 1    
    42   20   21 2    
    43   20   22 1    
    44   22   23 1    
    45   22   24 1    
    46   22   90 1    
    47   23   91 1    
    48   23   92 1    
    49   23   93 1    
    50   24   25 am   BACKBONE|DICT|INTERRES
    51   24   94 1    
    52   25   26 2    
    53   25   27 1    
    54   27   28 1    
    55   27   29 1    
    56   27   95 1    
    57   28   96 1    
    58   28   97 1    
    59   28   98 1    
    60   29   30 am   BACKBONE|DICT|INTERRES
    61   29   99 1    
    62   30   31 2    
    63   30   32 1    
    64   32   33 1    
    65   32   34 1    
    66   32  100 1    
    67   33  101 1    
    68   33  102 1    
    69   33  103 1    
    70   34   35 am   BACKBONE|DICT|INTERRES
    71   34  104 1    
    72   35   36 2    
    73   37   38 2    
    74   37   39 am   BACKBONE|DICT|INTERRES
    75   39   40 1    
    76   39  105 1    
    77   40   41 1    
    78   40   42 1    
    79   40  106 1    
    80   41  107 1    
    81   41  108 1    
    82   41  109 1    
    83   42   43 2    
    84   42   44 am   BACKBONE|DICT|INTERRES
    85   44   45 1    
    86   44  110 1    
    87   45   46 1    
    88   45   47 1    
    89   45  111 1    
    90   46  112 1    
    91   46  113 1    
    92   46  114 1    
    93   47   48 2    
    94   47   49 am   BACKBONE|DICT|INTERRES
    95   49   50 1    
    96   49  115 1    
    97   50   51 1    
    98   50   52 1    
    99   50  116 1    
   100   51  117 1    
   101   51  118 1    
   102   51  119 1    
   103   52   53 2    
   104   52   54 am   BACKBONE|DICT|INTERRES
   105   54   55 1    
   106   54  120 1    
   107   55   56 1    
   108   55   57 1    
   109   55  121 1    
   110   56  122 1    
   111   56  123 1    
   112   56  124 1    
   113   57   58 2    
   114   57   59 am   BACKBONE|DICT|INTERRES
   115   59   60 1    
   116   59  125 1    
   117   60   61 1    
   118   60   62 1    
   119   60  126 1    
   120   61  127 1    
   121   61  128 1    
   122   61  129 1    
   123   62   63 2    
   124   62   64 am   BACKBONE|DICT|INTERRES
   125   64   65 1    
   126   64  130 1    
   127   65   66 1    
   128   65   69 1    
   129   65  131 1    
   130   66   67 am   BACKBONE|DICT|INTERRES
   131   66   68 2    
   132   67  132 1    
   133   67  133 1    
   134   69   70 1    
   135   69  134 1    
   136   69  135 1    
   137   70   71 1    
   138   71  136 1    
   139   71  137 1    
@<TRIPOS>SUBSTRUCTURE
     1 UNK         1 GROUP             0       ****    0 ROOT    
