@<TRIPOS>MOLECULE
3R137
137   139    1
SMALL
USER_CHARGES


@<TRIPOS>ATOM
      1 CA         24.0577   -4.4706   -7.6265 C.3       0 UNK        -0.2020 
      2 C          24.6405   -5.3624   -6.5418 C.2       0 UNK         0.4855 
      3 O          23.9502   -6.2498   -6.0399 O.2       0 UNK        -0.5197 
      4 N          25.9104   -5.1352   -6.1778 N.am      1 UNK        -0.4892 
      5 CA         26.6189   -5.8742   -5.1234 C.3       1 UNK         0.0835 
      6 C6         28.1539   -5.6881   -5.2209 C.3       12 UNK        -0.0855 
      7 S7         28.7264   -3.9593   -5.0404 S.3       12 UNK        -0.2931 
      8 C8         29.5015   -4.0430   -3.3951 C.3       12 UNK         0.0378 
      9 C9         30.2051   -2.7424   -3.0445 C.ar      12 UNK        -0.0802 
     10 C10        31.5100   -2.5105   -3.4896 C.ar      12 UNK        -0.0944 
     11 C11        32.1646   -1.3130   -3.1833 C.ar      12 UNK        -0.0787 
     12 C12        31.5022   -0.3469   -2.4197 C.ar      12 UNK        -0.0862 
     13 C13        30.2038   -0.5741   -1.9524 C.ar      12 UNK        -0.0733 
     14 C14        29.5612   -1.7768   -2.2653 C.ar      12 UNK        -0.0832 
     15 C15        29.5066    0.4765   -1.0965 C.3       12 UNK         0.0240 
     16 S16        27.9578    1.0839   -1.8385 S.3       12 UNK        -0.2522 
     17 C17        28.5246    1.7228   -3.4512 C.3       12 UNK        -0.0967 
     18 CA         28.2062    0.7344   -4.6089 C.3       5 UNK         0.0660 
     19 N          26.7685    0.4671   -4.7366 N.am      5 UNK        -0.4015 
     20 C          25.8371    1.2575   -5.2965 C.2       4 UNK         0.4946 
     21 O          26.0831    2.3120   -5.8843 O.2       4 UNK        -0.5353 
     22 CA         24.3691    0.8098   -5.1567 C.3       4 UNK         0.0277 
     23 CB         23.9941   -0.1628   -6.2867 C.3       4 UNK        -0.1981 
     24 N          24.0932    0.1752   -3.8660 N.am      4 UNK        -0.4209 
     25 C          24.2154    0.7719   -2.6719 C.2       3 UNK         0.4942 
     26 O          24.3574    1.9879   -2.5355 O.2       3 UNK        -0.5208 
     27 CA         24.1971   -0.1217   -1.4119 C.3       3 UNK         0.0250 
     28 CB         22.9778    0.2108   -0.5340 C.3       3 UNK        -0.1990 
     29 N          24.2348   -1.5771   -1.6273 N.am      3 UNK        -0.4232 
     30 C          25.1597   -2.2827   -2.2951 C.2       2 UNK         0.4993 
     31 O          26.0843   -1.7720   -2.9322 O.2       2 UNK        -0.5286 
     32 CA         25.0058   -3.8121   -2.2876 C.3       2 UNK         0.0209 
     33 CB         23.5449   -4.2934   -2.1400 C.3       2 UNK        -0.1931 
     34 N          25.5774   -4.3354   -3.5229 N.am      2 UNK        -0.4546 
     35 C          26.0842   -5.5589   -3.7084 C.2       1 UNK         0.5154 
     36 O          26.1313   -6.4224   -2.8306 O.2       1 UNK        -0.5181 
     37 C          28.8408    1.1329   -5.9574 C.2       5 UNK         0.5014 
     38 O          28.9746    0.2794   -6.8361 O.2       5 UNK        -0.5248 
     39 N          29.1862    2.4184   -6.1238 N.am      6 UNK        -0.4434 
     40 CA         29.7605    2.9914   -7.3433 C.3       6 UNK         0.0363 
     41 CB         30.1424    4.4578   -7.0914 C.3       6 UNK        -0.1936 
     42 C          28.8648    2.8734   -8.5890 C.2       6 UNK         0.5081 
     43 O          29.3966    2.8195   -9.6966 O.2       6 UNK        -0.5248 
     44 N          27.5394    2.7917   -8.4072 N.am      7 UNK        -0.4718 
     45 CA         26.5901    2.5588   -9.5000 C.3       7 UNK         0.0273 
     46 CB         25.1815    2.9857   -9.0558 C.3       7 UNK        -0.1935 
     47 C          26.5882    1.1017  -10.0020 C.2       7 UNK         0.5018 
     48 O          26.0759    0.8548  -11.0946 O.2       7 UNK        -0.5186 
     49 N          27.1426    0.1718   -9.2108 N.am      8 UNK        -0.4240 
     50 CA         27.2261   -1.2522   -9.5291 C.3       8 UNK         0.0235 
     51 CB         26.6876   -2.0700   -8.3428 C.3       8 UNK        -0.2000 
     52 C          28.6617   -1.6776   -9.8630 C.2       8 UNK         0.4941 
     53 O          28.8762   -2.3049  -10.9008 O.2       8 UNK        -0.5273 
     54 N          29.6064   -1.3644   -8.9675 N.am      9 UNK        -0.4262 
     55 CA         30.9617   -1.9204   -8.9592 C.3       9 UNK         0.0264 
     56 CB         31.1711   -2.6354   -7.6121 C.3       9 UNK        -0.1955 
     57 C          32.0641   -0.8769   -9.2024 C.2       9 UNK         0.5031 
     58 O          33.2388   -1.2399   -9.1346 O.2       9 UNK        -0.5390 
     59 N          31.7014    0.3912   -9.4523 N.am      10 UNK        -0.4204 
     60 CA         32.5697    1.5593   -9.7049 C.3       10 UNK         0.0237 
     61 CB         33.4505    1.3484  -10.9528 C.3       10 UNK        -0.1985 
     62 C          33.4190    2.0343   -8.5064 C.2       10 UNK         0.4970 
     63 O          33.6851    3.2320   -8.4061 O.2       10 UNK        -0.4914 
     64 N          33.8163    1.1137   -7.6234 N.am      11 UNK        -0.4285 
     65 CA         34.5929    1.3486   -6.3970 C.3       11 UNK         0.1007 
     66 C          33.9010    2.2319   -5.3182 C.2       11 UNK         0.5703 
     67 N          32.5775    2.3263   -5.2903 N.am      11 UNK        -0.7361 
     68 O          34.5813    2.8404   -4.4958 O.2       11 UNK        -0.4986 
     69 C69        35.0979    0.0089   -5.7973 C.3       12 UNK        -0.0947 
     70 S70        33.7482   -1.1765   -5.4598 S.3       12 UNK        -0.2240 
     71 C71        33.5939   -1.0669   -3.6502 C.3       12 UNK         0.0194 
     72 H72        23.8878   -3.4651   -7.2431 H         1 UNK         0.0906 
     73 H73        24.7257   -4.4135   -8.4850 H         1 UNK         0.0906 
     74 H74        23.1027   -4.8640   -7.9747 H         1 UNK         0.0906 
     75 H75        26.4418   -4.3974   -6.6175 H         1 UNK         0.3140 
     76 H76        26.4166   -6.9353   -5.2881 H         1 UNK         0.1085 
     77 H77        28.4975   -6.0465   -6.1926 H         1 UNK         0.0836 
     78 H78        28.6559   -6.3256   -4.4906 H         1 UNK         0.0836 
     79 H79        30.2214   -4.8627   -3.3714 H         1 UNK         0.0731 
     80 H80        28.7407   -4.2764   -2.6485 H         1 UNK         0.0731 
     81 H81        32.0143   -3.2593   -4.0852 H         1 UNK         0.1312 
     82 H82        32.0041    0.5802   -2.1781 H         1 UNK         0.1406 
     83 H83        28.5516   -1.9501   -1.9169 H         1 UNK         0.1631 
     84 H84        30.1631    1.3278   -0.9100 H         1 UNK         0.0717 
     85 H85        29.2813    0.0444   -0.1207 H         1 UNK         0.0717 
     86 H86        28.0322    2.6832   -3.6135 H         1 UNK         0.0934 
     87 H87        29.5956    1.9263   -3.3916 H         1 UNK         0.0934 
     88 H88        28.6584   -0.2262   -4.3625 H         1 UNK         0.0739 
     89 H89        26.4563   -0.3624   -4.2385 H         1 UNK         0.3093 
     90 H90        23.7416    1.6998   -5.2388 H         1 UNK         0.0818 
     91 H91        24.2222    0.2602   -7.2656 H         1 UNK         0.0819 
     92 H92        24.5392   -1.1031   -6.2029 H         1 UNK         0.0819 
     93 H93        22.9282   -0.3913   -6.2748 H         1 UNK         0.0819 
     94 H94        23.9725   -0.8263   -3.8698 H         1 UNK         0.3041 
     95 H95        25.0974    0.1333   -0.8493 H         1 UNK         0.0784 
     96 H96        22.9358    1.2767   -0.3049 H         1 UNK         0.0793 
     97 H97        22.0423   -0.0526   -1.0292 H         1 UNK         0.0793 
     98 H98        23.0162   -0.3179    0.4186 H         1 UNK         0.0793 
     99 H99        23.5000   -2.0990   -1.1718 H         1 UNK         0.3024 
    100 H100       25.5918   -4.1835   -1.4439 H         1 UNK         0.1171 
    101 H101       23.1245   -4.0168   -1.1726 H         1 UNK         0.0786 
    102 H102       22.9024   -3.8785   -2.9179 H         1 UNK         0.0786 
    103 H103       23.4788   -5.3796   -2.2066 H         1 UNK         0.0786 
    104 H104       25.6791   -3.6598   -4.2679 H         1 UNK         0.2977 
    105 H105       28.9803    3.0685   -5.3796 H         1 UNK         0.3127 
    106 H106       30.6734    2.4366   -7.5575 H         1 UNK         0.0770 
    107 H107       29.2710    5.0656   -6.8448 H         1 UNK         0.0814 
    108 H108       30.6065    4.8959   -7.9764 H         1 UNK         0.0814 
    109 H109       30.8608    4.5496   -6.2770 H         1 UNK         0.0814 
    110 H110       27.1589    2.8016   -7.4633 H         1 UNK         0.2983 
    111 H111       26.8776    3.1880  -10.3456 H         1 UNK         0.0947 
    112 H112       24.4675    2.8853   -9.8743 H         1 UNK         0.0806 
    113 H113       25.1645    4.0283   -8.7379 H         1 UNK         0.0806 
    114 H114       24.8143    2.3783   -8.2296 H         1 UNK         0.0806 
    115 H115       27.5805    0.4689   -8.3462 H         1 UNK         0.3000 
    116 H116       26.6077   -1.4864  -10.3986 H         1 UNK         0.0850 
    117 H117       26.8227   -3.1379   -8.5168 H         1 UNK         0.0810 
    118 H118       25.6219   -1.8931   -8.2062 H         1 UNK         0.0810 
    119 H119       27.1936   -1.8237   -7.4079 H         1 UNK         0.0810 
    120 H120       29.3432   -0.8255   -8.1409 H         1 UNK         0.3040 
    121 H121       31.0726   -2.6656   -9.7494 H         1 UNK         0.0766 
    122 H122       31.0427   -1.9548   -6.7689 H         1 UNK         0.0812 
    123 H123       32.1703   -3.0663   -7.5369 H         1 UNK         0.0812 
    124 H124       30.4616   -3.4532   -7.4886 H         1 UNK         0.0812 
    125 H125       30.7092    0.5835   -9.4861 H         1 UNK         0.3205 
    126 H126       31.8962    2.3841   -9.9355 H         1 UNK         0.0754 
    127 H127       33.9941    2.2606  -11.2026 H         1 UNK         0.0769 
    128 H128       32.8487    1.0826  -11.8219 H         1 UNK         0.0769 
    129 H129       34.1922    0.5631  -10.8044 H         1 UNK         0.0769 
    130 H130       33.6001    0.1437   -7.8311 H         1 UNK         0.2981 
    131 H131       35.4768    1.9096   -6.7057 H         1 UNK         0.0541 
    132 H132       32.1453    2.9068   -4.5912 H         1 UNK         0.3459 
    133 H133       32.0197    1.7960   -5.9369 H         1 UNK         0.3459 
    134 H134       35.7772   -0.4676   -6.5056 H         1 UNK         0.0612 
    135 H135       35.6903    0.1765   -4.8960 H         1 UNK         0.0612 
    136 H136       33.9344   -0.0865   -3.3144 H         1 UNK         0.0624 
    137 H137       34.2580   -1.7998   -3.1906 H         1 UNK         0.0624 
@<TRIPOS>BOND
     1    1    2 1    
     2    1   72 1    
     3    1   73 1    
     4    1   74 1    
     5    2    3 2    
     6    2    4 am   BACKBONE|DICT|INTERRES
     7    4    5 1    
     8    4   75 1    
     9    5    6 1    
    10    5   35 1    
    11    5   76 1    
    12    6    7 1    
    13    6   77 1    
    14    6   78 1    
    15    7    8 1    
    16    8    9 1    
    17    8   79 1    
    18    8   80 1    
    19    9   10 ar   
    20    9   14 ar   
    21   10   11 ar   
    22   10   81 1    
    23   11   12 ar   
    24   11   71 1    
    25   12   13 ar   
    26   12   82 1    
    27   13   14 ar   
    28   13   15 1    
    29   14   83 1    
    30   15   16 1    
    31   15   84 1    
    32   15   85 1    
    33   16   17 1    
    34   17   18 1    
    35   17   86 1    
    36   17   87 1    
    37   18   19 1    
    38   18   37 1    
    39   18   88 1    
    40   19   20 am   BACKBONE|DICT|INTERRES
    41   19   89 1    
    42   20   21 2    
    43   20   22 1    
    44   22   23 1    
    45   22   24 1    
    46   22   90 1    
    47   23   91 1    
    48   23   92 1    
    49   23   93 1    
    50   24   25 am   BACKBONE|DICT|INTERRES
    51   24   94 1    
    52   25   26 2    
    53   25   27 1    
    54   27   28 1    
    55   27   29 1    
    56   27   95 1    
    57   28   96 1    
    58   28   97 1    
    59   28   98 1    
    60   29   30 am   BACKBONE|DICT|INTERRES
    61   29   99 1    
    62   30   31 2    
    63   30   32 1    
    64   32   33 1    
    65   32   34 1    
    66   32  100 1    
    67   33  101 1    
    68   33  102 1    
    69   33  103 1    
    70   34   35 am   BACKBONE|DICT|INTERRES
    71   34  104 1    
    72   35   36 2    
    73   37   38 2    
    74   37   39 am   BACKBONE|DICT|INTERRES
    75   39   40 1    
    76   39  105 1    
    77   40   41 1    
    78   40   42 1    
    79   40  106 1    
    80   41  107 1    
    81   41  108 1    
    82   41  109 1    
    83   42   43 2    
    84   42   44 am   BACKBONE|DICT|INTERRES
    85   44   45 1    
    86   44  110 1    
    87   45   46 1    
    88   45   47 1    
    89   45  111 1    
    90   46  112 1    
    91   46  113 1    
    92   46  114 1    
    93   47   48 2    
    94   47   49 am   BACKBONE|DICT|INTERRES
    95   49   50 1    
    96   49  115 1    
    97   50   51 1    
    98   50   52 1    
    99   50  116 1    
   100   51  117 1    
   101   51  118 1    
   102   51  119 1    
   103   52   53 2    
   104   52   54 am   BACKBONE|DICT|INTERRES
   105   54   55 1    
   106   54  120 1    
   107   55   56 1    
   108   55   57 1    
   109   55  121 1    
   110   56  122 1    
   111   56  123 1    
   112   56  124 1    
   113   57   58 2    
   114   57   59 am   BACKBONE|DICT|INTERRES
   115   59   60 1    
   116   59  125 1    
   117   60   61 1    
   118   60   62 1    
   119   60  126 1    
   120   61  127 1    
   121   61  128 1    
   122   61  129 1    
   123   62   63 2    
   124   62   64 am   BACKBONE|DICT|INTERRES
   125   64   65 1    
   126   64  130 1    
   127   65   66 1    
   128   65   69 1    
   129   65  131 1    
   130   66   67 am   BACKBONE|DICT|INTERRES
   131   66   68 2    
   132   67  132 1    
   133   67  133 1    
   134   69   70 1    
   135   69  134 1    
   136   69  135 1    
   137   70   71 1    
   138   71  136 1    
   139   71  137 1    
@<TRIPOS>SUBSTRUCTURE
     1 UNK         1 GROUP             0       ****    0 ROOT    
