@<TRIPOS>MOLECULE
3R137
137   139    1
SMALL
USER_CHARGES


@<TRIPOS>ATOM
      1 CA         26.0381   -4.7520   -0.4681 C.3       0 UNK        -0.2020 
      2 C          26.8510   -3.9186   -1.4475 C.2       0 UNK         0.4855 
      3 O          26.9404   -4.2882   -2.6167 O.2       0 UNK        -0.5197 
      4 N          27.4361   -2.8134   -0.9610 N.am      1 UNK        -0.4892 
      5 CA         28.2197   -1.7960   -1.6828 C.3       1 UNK         0.0835 
      6 C6         29.3975   -2.3520   -2.5231 C.3       12 UNK        -0.0855 
      7 S7         30.5976   -3.3476   -1.5656 S.3       12 UNK        -0.2931 
      8 C8         30.5122   -4.9821   -2.3822 C.3       12 UNK         0.0378 
      9 C9         30.6103   -4.8818   -3.8999 C.ar      12 UNK        -0.0802 
     10 C10        31.7457   -4.3359   -4.5038 C.ar      12 UNK        -0.0944 
     11 C11        31.7840   -4.1282   -5.8857 C.ar      12 UNK        -0.0787 
     12 C12        30.6869   -4.4993   -6.6702 C.ar      12 UNK        -0.0862 
     13 C13        29.5547   -5.0718   -6.0803 C.ar      12 UNK        -0.0733 
     14 C14        29.5297   -5.2708   -4.6966 C.ar      12 UNK        -0.0832 
     15 C15        28.3534   -5.4634   -6.9337 C.3       12 UNK         0.0240 
     16 S16        26.8007   -4.6965   -6.3584 S.3       12 UNK        -0.2522 
     17 C17        27.1847   -2.9248   -6.5460 C.3       12 UNK        -0.0967 
     18 CA         25.9051   -2.0697   -6.7234 C.3       5 UNK         0.0660 
     19 N          25.0568   -2.1002   -5.5301 N.am      5 UNK        -0.4015 
     20 C          23.7230   -1.9861   -5.5216 C.2       4 UNK         0.4946 
     21 O          23.0504   -1.8049   -6.5379 O.2       4 UNK        -0.5353 
     22 CA         23.0309   -2.0367   -4.1545 C.3       4 UNK         0.0277 
     23 CB         23.2648   -3.3890   -3.4581 C.3       4 UNK        -0.1981 
     24 N          23.5301   -0.9547   -3.3077 N.am      4 UNK        -0.4209 
     25 C          22.8135    0.1034   -2.9025 C.2       3 UNK         0.4942 
     26 O          21.6189    0.2618   -3.1574 O.2       3 UNK        -0.5208 
     27 CA         23.5390    1.1723   -2.0597 C.3       3 UNK         0.0250 
     28 CB         23.2683    0.9474   -0.5630 C.3       3 UNK        -0.1990 
     29 N          24.9862    1.2116   -2.2830 N.am      3 UNK        -0.4232 
     30 C          25.5722    1.6023   -3.4231 C.2       2 UNK         0.4993 
     31 O          24.9570    2.0886   -4.3707 O.2       2 UNK        -0.5286 
     32 CA         27.0957    1.4035   -3.5436 C.3       2 UNK         0.0209 
     33 CB         27.8191    2.7436   -3.3290 C.3       2 UNK        -0.1931 
     34 N          27.6880    0.3951   -2.6496 N.am      2 UNK        -0.4546 
     35 C          27.3314   -0.8956   -2.5669 C.2       1 UNK         0.5154 
     36 O          26.3633   -1.3653   -3.1676 O.2       1 UNK        -0.5181 
     37 C          26.2212   -0.6109   -7.1044 C.2       5 UNK         0.5014 
     38 O          27.3897   -0.2228   -7.1673 O.2       5 UNK        -0.5248 
     39 N          25.1715    0.1771   -7.3717 N.am      6 UNK        -0.4434 
     40 CA         25.2503    1.5926   -7.7508 C.3       6 UNK         0.0363 
     41 CB         23.8330    2.1849   -7.7878 C.3       6 UNK        -0.1936 
     42 C          25.9775    1.8429   -9.0847 C.2       6 UNK         0.5081 
     43 O          26.5268    2.9267   -9.2781 O.2       6 UNK        -0.5248 
     44 N          25.9875    0.8359   -9.9697 N.am      7 UNK        -0.4718 
     45 CA         26.7439    0.8390  -11.2238 C.3       7 UNK         0.0273 
     46 CB         26.2195   -0.2845  -12.1327 C.3       7 UNK        -0.1935 
     47 C          28.2630    0.6961  -11.0133 C.2       7 UNK         0.5018 
     48 O          29.0272    1.1824  -11.8478 O.2       7 UNK        -0.5186 
     49 N          28.6728    0.0356   -9.9200 N.am      8 UNK        -0.4240 
     50 CA         30.0741   -0.1103   -9.5229 C.3       8 UNK         0.0235 
     51 CB         30.2824   -1.4581   -8.8128 C.3       8 UNK        -0.2000 
     52 C          30.5018    1.0546   -8.6211 C.2       8 UNK         0.4941 
     53 O          31.5723    1.6230   -8.8413 O.2       8 UNK        -0.5273 
     54 N          29.6509    1.3968   -7.6406 N.am      9 UNK        -0.4262 
     55 CA         29.8015    2.4765   -6.6621 C.3       9 UNK         0.0264 
     56 CB         29.6262    3.8537   -7.3400 C.3       9 UNK        -0.1955 
     57 C          31.1027    2.3403   -5.8496 C.2       9 UNK         0.5031 
     58 O          31.1465    1.5407   -4.9146 O.2       9 UNK        -0.5390 
     59 N          32.1320    3.1114   -6.2241 N.am      10 UNK        -0.4204 
     60 CA         33.4767    3.0630   -5.6460 C.3       10 UNK         0.0237 
     61 CB         34.1989    4.3845   -5.9595 C.3       10 UNK        -0.1985 
     62 C          34.3156    1.8622   -6.1277 C.2       10 UNK         0.4970 
     63 O          35.3480    1.5859   -5.5156 O.2       10 UNK        -0.4914 
     64 N          33.8830    1.1908   -7.2058 N.am      11 UNK        -0.4285 
     65 CA         34.5273    0.0199   -7.8302 C.3       11 UNK         0.1007 
     66 C          35.8662    0.3343   -8.5655 C.2       11 UNK         0.5703 
     67 N          36.1874    1.5914   -8.8488 N.am      11 UNK        -0.7361 
     68 O          36.6144   -0.5747   -8.9184 O.2       11 UNK        -0.4986 
     69 C69        34.6397   -1.2077   -6.8778 C.3       12 UNK        -0.0947 
     70 S70        33.0385   -1.6927   -6.1504 S.3       12 UNK        -0.2240 
     71 C71        33.0027   -3.4738   -6.5161 C.3       12 UNK         0.0194 
     72 H72        25.0032   -4.8171   -0.8031 H         1 UNK         0.0906 
     73 H73        26.4420   -5.7625   -0.4120 H         1 UNK         0.0906 
     74 H74        26.0437   -4.3283    0.5360 H         1 UNK         0.0906 
     75 H75        27.2974   -2.6026    0.0174 H         1 UNK         0.3140 
     76 H76        28.6454   -1.1612   -0.9037 H         1 UNK         0.1085 
     77 H77        29.0067   -2.9212   -3.3653 H         1 UNK         0.0836 
     78 H78        29.9611   -1.5316   -2.9727 H         1 UNK         0.0836 
     79 H79        29.5818   -5.4697   -2.0866 H         1 UNK         0.0731 
     80 H80        31.3218   -5.6107   -2.0092 H         1 UNK         0.0731 
     81 H81        32.5801   -4.0228   -3.8909 H         1 UNK         0.1312 
     82 H82        30.7115   -4.3321   -7.7382 H         1 UNK         0.1406 
     83 H83        28.6416   -5.6823   -4.2349 H         1 UNK         0.1631 
     84 H84        28.2407   -6.5478   -6.9058 H         1 UNK         0.0717 
     85 H85        28.5129   -5.1970   -7.9798 H         1 UNK         0.0717 
     86 H86        27.7621   -2.5928   -5.6805 H         1 UNK         0.0934 
     87 H87        27.8367   -2.8159   -7.4141 H         1 UNK         0.0934 
     88 H88        25.3477   -2.4920   -7.5626 H         1 UNK         0.0739 
     89 H89        25.5514   -2.1468   -4.6417 H         1 UNK         0.3093 
     90 H90        21.9576   -1.9291   -4.3246 H         1 UNK         0.0818 
     91 H91        22.9234   -4.2146   -4.0837 H         1 UNK         0.0819 
     92 H92        24.3192   -3.5605   -3.2391 H         1 UNK         0.0819 
     93 H93        22.7173   -3.4467   -2.5173 H         1 UNK         0.0819 
     94 H94        24.5234   -0.9834   -3.0904 H         1 UNK         0.3041 
     95 H95        23.1281    2.1444   -2.3410 H         1 UNK         0.0784 
     96 H96        22.1969    0.9434   -0.3570 H         1 UNK         0.0793 
     97 H97        23.6696   -0.0066   -0.2183 H         1 UNK         0.0793 
     98 H98        23.7094    1.7383    0.0441 H         1 UNK         0.0793 
     99 H99        25.5725    0.8385   -1.5511 H         1 UNK         0.3024 
    100 H100       27.2840    1.0694   -4.5665 H         1 UNK         0.1171 
    101 H101       28.8940    2.6478   -3.4817 H         1 UNK         0.0786 
    102 H102       27.4595    3.4990   -4.0296 H         1 UNK         0.0786 
    103 H103       27.6581    3.1305   -2.3220 H         1 UNK         0.0786 
    104 H104       28.4928    0.7026   -2.1217 H         1 UNK         0.2977 
    105 H105       24.2453   -0.2271   -7.2790 H         1 UNK         0.3127 
    106 H106       25.8184    2.1103   -6.9749 H         1 UNK         0.0770 
    107 H107       23.2048    1.6861   -8.5268 H         1 UNK         0.0814 
    108 H108       23.8599    3.2453   -8.0424 H         1 UNK         0.0814 
    109 H109       23.3450    2.0999   -6.8163 H         1 UNK         0.0814 
    110 H110       25.4811   -0.0068   -9.7402 H         1 UNK         0.2983 
    111 H111       26.5717    1.7942  -11.7254 H         1 UNK         0.0947 
    112 H112       26.7465   -0.2903  -13.0880 H         1 UNK         0.0806 
    113 H113       25.1592   -0.1564  -12.3514 H         1 UNK         0.0806 
    114 H114       26.3544   -1.2681  -11.6809 H         1 UNK         0.0806 
    115 H115       27.9784   -0.2730   -9.2524 H         1 UNK         0.3000 
    116 H116       30.7074   -0.1012  -10.4129 H         1 UNK         0.0850 
    117 H117       31.3432   -1.6353   -8.6349 H         1 UNK         0.0810 
    118 H118       29.9135   -2.2884   -9.4149 H         1 UNK         0.0810 
    119 H119       29.7835   -1.4946   -7.8439 H         1 UNK         0.0810 
    120 H120       28.8249    0.8143   -7.5082 H         1 UNK         0.3040 
    121 H121       28.9815    2.3565   -5.9545 H         1 UNK         0.0766 
    122 H122       30.3381    4.0168   -8.1495 H         1 UNK         0.0812 
    123 H123       29.7446    4.6655   -6.6209 H         1 UNK         0.0812 
    124 H124       28.6269    3.9494   -7.7648 H         1 UNK         0.0812 
    125 H125       32.0030    3.7109   -7.0268 H         1 UNK         0.3205 
    126 H126       33.3820    2.9753   -4.5615 H         1 UNK         0.0754 
    127 H127       35.1949    4.4016   -5.5145 H         1 UNK         0.0769 
    128 H128       33.6537    5.2392   -5.5583 H         1 UNK         0.0769 
    129 H129       34.3191    4.5358   -7.0330 H         1 UNK         0.0769 
    130 H130       33.0308    1.4980   -7.6679 H         1 UNK         0.2981 
    131 H131       33.8487   -0.2701   -8.6330 H         1 UNK         0.0541 
    132 H132       37.0492    1.7835   -9.3347 H         1 UNK         0.3459 
    133 H133       35.5767    2.3462   -8.5821 H         1 UNK         0.3459 
    134 H134       35.3389   -1.0074   -6.0651 H         1 UNK         0.0612 
    135 H135       35.0476   -2.0640   -7.4172 H         1 UNK         0.0612 
    136 H136       33.0076   -3.6212   -7.5972 H         1 UNK         0.0624 
    137 H137       33.9087   -3.9430   -6.1294 H         1 UNK         0.0624 
@<TRIPOS>BOND
     1    1    2 1    
     2    1   72 1    
     3    1   73 1    
     4    1   74 1    
     5    2    3 2    
     6    2    4 am   BACKBONE|DICT|INTERRES
     7    4    5 1    
     8    4   75 1    
     9    5    6 1    
    10    5   35 1    
    11    5   76 1    
    12    6    7 1    
    13    6   77 1    
    14    6   78 1    
    15    7    8 1    
    16    8    9 1    
    17    8   79 1    
    18    8   80 1    
    19    9   10 ar   
    20    9   14 ar   
    21   10   11 ar   
    22   10   81 1    
    23   11   12 ar   
    24   11   71 1    
    25   12   13 ar   
    26   12   82 1    
    27   13   14 ar   
    28   13   15 1    
    29   14   83 1    
    30   15   16 1    
    31   15   84 1    
    32   15   85 1    
    33   16   17 1    
    34   17   18 1    
    35   17   86 1    
    36   17   87 1    
    37   18   19 1    
    38   18   37 1    
    39   18   88 1    
    40   19   20 am   BACKBONE|DICT|INTERRES
    41   19   89 1    
    42   20   21 2    
    43   20   22 1    
    44   22   23 1    
    45   22   24 1    
    46   22   90 1    
    47   23   91 1    
    48   23   92 1    
    49   23   93 1    
    50   24   25 am   BACKBONE|DICT|INTERRES
    51   24   94 1    
    52   25   26 2    
    53   25   27 1    
    54   27   28 1    
    55   27   29 1    
    56   27   95 1    
    57   28   96 1    
    58   28   97 1    
    59   28   98 1    
    60   29   30 am   BACKBONE|DICT|INTERRES
    61   29   99 1    
    62   30   31 2    
    63   30   32 1    
    64   32   33 1    
    65   32   34 1    
    66   32  100 1    
    67   33  101 1    
    68   33  102 1    
    69   33  103 1    
    70   34   35 am   BACKBONE|DICT|INTERRES
    71   34  104 1    
    72   35   36 2    
    73   37   38 2    
    74   37   39 am   BACKBONE|DICT|INTERRES
    75   39   40 1    
    76   39  105 1    
    77   40   41 1    
    78   40   42 1    
    79   40  106 1    
    80   41  107 1    
    81   41  108 1    
    82   41  109 1    
    83   42   43 2    
    84   42   44 am   BACKBONE|DICT|INTERRES
    85   44   45 1    
    86   44  110 1    
    87   45   46 1    
    88   45   47 1    
    89   45  111 1    
    90   46  112 1    
    91   46  113 1    
    92   46  114 1    
    93   47   48 2    
    94   47   49 am   BACKBONE|DICT|INTERRES
    95   49   50 1    
    96   49  115 1    
    97   50   51 1    
    98   50   52 1    
    99   50  116 1    
   100   51  117 1    
   101   51  118 1    
   102   51  119 1    
   103   52   53 2    
   104   52   54 am   BACKBONE|DICT|INTERRES
   105   54   55 1    
   106   54  120 1    
   107   55   56 1    
   108   55   57 1    
   109   55  121 1    
   110   56  122 1    
   111   56  123 1    
   112   56  124 1    
   113   57   58 2    
   114   57   59 am   BACKBONE|DICT|INTERRES
   115   59   60 1    
   116   59  125 1    
   117   60   61 1    
   118   60   62 1    
   119   60  126 1    
   120   61  127 1    
   121   61  128 1    
   122   61  129 1    
   123   62   63 2    
   124   62   64 am   BACKBONE|DICT|INTERRES
   125   64   65 1    
   126   64  130 1    
   127   65   66 1    
   128   65   69 1    
   129   65  131 1    
   130   66   67 am   BACKBONE|DICT|INTERRES
   131   66   68 2    
   132   67  132 1    
   133   67  133 1    
   134   69   70 1    
   135   69  134 1    
   136   69  135 1    
   137   70   71 1    
   138   71  136 1    
   139   71  137 1    
@<TRIPOS>SUBSTRUCTURE
     1 UNK         1 GROUP             0       ****    0 ROOT    
