@<TRIPOS>MOLECULE
3R137
137   139    1
SMALL
USER_CHARGES


@<TRIPOS>ATOM
      1 CA         26.3029   -6.5046   -3.5524 C.3       0 UNK        -0.2020 
      2 C          26.0044   -6.1171   -2.1126 C.2       0 UNK         0.4855 
      3 O          24.9436   -6.4626   -1.5923 O.2       0 UNK        -0.5197 
      4 N          26.9355   -5.4072   -1.4624 N.am      1 UNK        -0.4892 
      5 CA         26.8099   -4.9229   -0.0811 C.3       1 UNK         0.0835 
      6 C6         28.1890   -4.5642    0.5327 C.3       12 UNK        -0.0855 
      7 S7         29.1264   -3.3340   -0.4424 S.3       12 UNK        -0.2931 
      8 C8         30.4287   -4.3580   -1.1978 C.3       12 UNK         0.0378 
      9 C9         30.8500   -3.7635   -2.5311 C.ar      12 UNK        -0.0802 
     10 C10        31.7599   -2.7025   -2.5746 C.ar      12 UNK        -0.0944 
     11 C11        32.1054   -2.1203   -3.7971 C.ar      12 UNK        -0.0787 
     12 C12        31.5318   -2.6035   -4.9762 C.ar      12 UNK        -0.0862 
     13 C13        30.6149   -3.6565   -4.9479 C.ar      12 UNK        -0.0733 
     14 C14        30.2981   -4.2498   -3.7206 C.ar      12 UNK        -0.0832 
     15 C15        29.9750   -4.1218   -6.2539 C.3       12 UNK         0.0240 
     16 S16        28.2043   -4.5518   -6.1220 S.3       12 UNK        -0.2522 
     17 C17        27.4650   -3.0601   -5.3732 C.3       12 UNK        -0.0967 
     18 CA         26.8882   -2.0779   -6.4244 C.3       5 UNK         0.0660 
     19 N          25.6520   -1.4495   -5.9553 N.am      5 UNK        -0.4015 
     20 C          24.7523   -0.8542   -6.7539 C.2       4 UNK         0.4946 
     21 O          24.8326   -0.8403   -7.9824 O.2       4 UNK        -0.5353 
     22 CA         23.5691   -0.1330   -6.0769 C.3       4 UNK         0.0277 
     23 CB         22.3458   -1.0612   -6.0086 C.3       4 UNK        -0.1981 
     24 N          23.8712    0.3654   -4.7325 N.am      4 UNK        -0.4209 
     25 C          24.8338    1.2506   -4.4366 C.2       3 UNK         0.4942 
     26 O          25.5151    1.8221   -5.2863 O.2       3 UNK        -0.5208 
     27 CA         25.1392    1.4927   -2.9474 C.3       3 UNK         0.0250 
     28 CB         24.4604    2.7850   -2.4674 C.3       3 UNK        -0.1990 
     29 N          24.7685    0.3856   -2.0542 N.am      3 UNK        -0.4232 
     30 C          25.2157   -0.8756   -2.1435 C.2       2 UNK         0.4993 
     31 O          25.9611   -1.2831   -3.0407 O.2       2 UNK        -0.5286 
     32 CA         24.6862   -1.8556   -1.0925 C.3       2 UNK         0.0209 
     33 CB         23.2691   -2.3354   -1.4569 C.3       2 UNK        -0.1931 
     34 N          25.5856   -3.0015   -1.0212 N.am      2 UNK        -0.4546 
     35 C          25.7978   -3.7627    0.0593 C.2       1 UNK         0.5154 
     36 O          25.2268   -3.5871    1.1375 O.2       1 UNK        -0.5181 
     37 C          27.9220   -1.0126   -6.8437 C.2       5 UNK         0.5014 
     38 O          28.5506   -1.1576   -7.8912 O.2       5 UNK        -0.5248 
     39 N          28.0509    0.0582   -6.0437 N.am      6 UNK        -0.4434 
     40 CA         28.9106    1.2127   -6.3267 C.3       6 UNK         0.0363 
     41 CB         28.9862    2.1212   -5.0893 C.3       6 UNK        -0.1936 
     42 C          28.4322    2.0070   -7.5531 C.2       6 UNK         0.5081 
     43 O          29.2524    2.4063   -8.3817 O.2       6 UNK        -0.5248 
     44 N          27.1053    2.1714   -7.6699 N.am      7 UNK        -0.4718 
     45 CA         26.4030    2.8512   -8.7649 C.3       7 UNK         0.0273 
     46 CB         24.9059    2.9335   -8.4286 C.3       7 UNK        -0.1935 
     47 C          26.6031    2.2228  -10.1575 C.2       7 UNK         0.5018 
     48 O          26.3317    2.8909  -11.1551 O.2       7 UNK        -0.5186 
     49 N          27.1186    0.9867  -10.2175 N.am      8 UNK        -0.4240 
     50 CA         27.5653    0.3116  -11.4402 C.3       8 UNK         0.0235 
     51 CB         27.5251   -1.2097  -11.2086 C.3       8 UNK        -0.2000 
     52 C          28.9607    0.7763  -11.9209 C.2       8 UNK         0.4941 
     53 O          29.5592    0.0945  -12.7540 O.2       8 UNK        -0.5273 
     54 N          29.4514    1.9099  -11.3936 N.am      9 UNK        -0.4262 
     55 CA         30.7639    2.5272  -11.6068 C.3       9 UNK         0.0264 
     56 CB         31.0005    2.8809  -13.0916 C.3       9 UNK        -0.1955 
     57 C          31.8855    1.6802  -10.9843 C.2       9 UNK         0.5031 
     58 O          32.8604    1.3440  -11.6607 O.2       9 UNK        -0.5390 
     59 N          31.7126    1.3505   -9.6995 N.am      10 UNK        -0.4204 
     60 CA         32.6619    0.5924   -8.8868 C.3       10 UNK         0.0237 
     61 CB         32.0124   -0.7453   -8.4883 C.3       10 UNK        -0.1985 
     62 C          33.0757    1.4146   -7.6556 C.2       10 UNK         0.4970 
     63 O          32.5769    2.5239   -7.4523 O.2       10 UNK        -0.4914 
     64 N          33.9929    0.8443   -6.8643 N.am      11 UNK        -0.4285 
     65 CA         34.5748    1.4173   -5.6344 C.3       11 UNK         0.1007 
     66 C          35.5988    2.5683   -5.8746 C.2       11 UNK         0.5703 
     67 N          36.0525    2.8096   -7.0991 N.am      11 UNK        -0.7361 
     68 O          36.0188    3.2349   -4.9312 O.2       11 UNK        -0.4986 
     69 C69        33.5318    1.7826   -4.5309 C.3       12 UNK        -0.0947 
     70 S70        32.1855    0.5793   -4.2663 S.3       12 UNK        -0.2240 
     71 C71        33.0749   -0.9516   -3.8581 C.3       12 UNK         0.0194 
     72 H72        25.7021   -5.9056   -4.2364 H         1 UNK         0.0906 
     73 H73        26.0623   -7.5544   -3.7179 H         1 UNK         0.0906 
     74 H74        27.3533   -6.3600   -3.8019 H         1 UNK         0.0906 
     75 H75        27.7824   -5.1305   -1.9363 H         1 UNK         0.3140 
     76 H76        26.4006   -5.7438    0.5128 H         1 UNK         0.1085 
     77 H77        28.7857   -5.4707    0.6450 H         1 UNK         0.0836 
     78 H78        28.0665   -4.1781    1.5467 H         1 UNK         0.0836 
     79 H79        31.2826   -4.4187   -0.5213 H         1 UNK         0.0731 
     80 H80        30.0747   -5.3800   -1.3411 H         1 UNK         0.0731 
     81 H81        32.1805   -2.3185   -1.6552 H         1 UNK         0.1312 
     82 H82        31.7865   -2.1376   -5.9169 H         1 UNK         0.1406 
     83 H83        29.5958   -5.0705   -3.6900 H         1 UNK         0.1631 
     84 H84        30.5192   -4.9945   -6.6165 H         1 UNK         0.0717 
     85 H85        30.0790   -3.3542   -7.0226 H         1 UNK         0.0717 
     86 H86        26.6623   -3.4288   -4.7325 H         1 UNK         0.0934 
     87 H87        28.1597   -2.5696   -4.6887 H         1 UNK         0.0934 
     88 H88        26.6288   -2.6454   -7.3214 H         1 UNK         0.0739 
     89 H89        25.5352   -1.3959   -4.9473 H         1 UNK         0.3093 
     90 H90        23.3109    0.7282   -6.6954 H         1 UNK         0.0818 
     91 H91        22.0804   -1.4295   -7.0007 H         1 UNK         0.0819 
     92 H92        22.5323   -1.9312   -5.3774 H         1 UNK         0.0819 
     93 H93        21.4725   -0.5403   -5.6153 H         1 UNK         0.0819 
     94 H94        23.3555   -0.0456   -3.9686 H         1 UNK         0.3041 
     95 H95        26.2201    1.6247   -2.8645 H         1 UNK         0.0784 
     96 H96        24.7390    3.6302   -3.0990 H         1 UNK         0.0793 
     97 H97        23.3729    2.7042   -2.4929 H         1 UNK         0.0793 
     98 H98        24.7563    3.0354   -1.4484 H         1 UNK         0.0793 
     99 H99        24.1414    0.6202   -1.2974 H         1 UNK         0.3024 
    100 H100       24.6695   -1.3474   -0.1254 H         1 UNK         0.1171 
    101 H101       22.5688   -1.5011   -1.5114 H         1 UNK         0.0786 
    102 H102       23.2524   -2.8429   -2.4225 H         1 UNK         0.0786 
    103 H103       22.8825   -3.0299   -0.7106 H         1 UNK         0.0786 
    104 H104       26.1409   -3.1556   -1.8530 H         1 UNK         0.2977 
    105 H105       27.4719    0.1179   -5.2186 H         1 UNK         0.3127 
    106 H106       29.9158    0.8430   -6.5340 H         1 UNK         0.0770 
    107 H107       28.0272    2.5867   -4.8617 H         1 UNK         0.0814 
    108 H108       29.7085    2.9234   -5.2469 H         1 UNK         0.0814 
    109 H109       29.3069    1.5674   -4.2071 H         1 UNK         0.0814 
    110 H110       26.5236    1.8571   -6.8960 H         1 UNK         0.2983 
    111 H111       26.7980    3.8678   -8.8164 H         1 UNK         0.0947 
    112 H112       24.3669    3.5109   -9.1810 H         1 UNK         0.0806 
    113 H113       24.7373    3.4188   -7.4670 H         1 UNK         0.0806 
    114 H114       24.4516    1.9437   -8.3925 H         1 UNK         0.0806 
    115 H115       27.3211    0.5138   -9.3461 H         1 UNK         0.3000 
    116 H116       26.8604    0.5464  -12.2405 H         1 UNK         0.0850 
    117 H117       27.7061   -1.7526  -12.1371 H         1 UNK         0.0810 
    118 H118       26.5542   -1.5311  -10.8305 H         1 UNK         0.0810 
    119 H119       28.2855   -1.5271  -10.4945 H         1 UNK         0.0810 
    120 H120       28.8962    2.3470  -10.6696 H         1 UNK         0.3040 
    121 H121       30.7489    3.4658  -11.0502 H         1 UNK         0.0766 
    122 H122       31.0955    1.9919  -13.7154 H         1 UNK         0.0812 
    123 H123       31.9199    3.4554  -13.2099 H         1 UNK         0.0812 
    124 H124       30.1863    3.4859  -13.4901 H         1 UNK         0.0812 
    125 H125       30.9134    1.7354   -9.1993 H         1 UNK         0.3205 
    126 H126       33.5688    0.3833   -9.4578 H         1 UNK         0.0754 
    127 H127       32.7301   -1.4057   -8.0016 H         1 UNK         0.0769 
    128 H128       31.6325   -1.2763   -9.3616 H         1 UNK         0.0769 
    129 H129       31.1782   -0.6021   -7.8029 H         1 UNK         0.0769 
    130 H130       34.3620   -0.0568   -7.1298 H         1 UNK         0.2981 
    131 H131       35.1902    0.6153   -5.2275 H         1 UNK         0.0541 
    132 H132       36.7235    3.5486   -7.2388 H         1 UNK         0.3459 
    133 H133       35.7288    2.2666   -7.8827 H         1 UNK         0.3459 
    134 H134       33.0586    2.7370   -4.7679 H         1 UNK         0.0612 
    135 H135       34.0355    1.9302   -3.5741 H         1 UNK         0.0612 
    136 H136       33.8295   -1.1624   -4.6155 H         1 UNK         0.0624 
    137 H137       33.6012   -0.8245   -2.9109 H         1 UNK         0.0624 
@<TRIPOS>BOND
     1    1    2 1    
     2    1   72 1    
     3    1   73 1    
     4    1   74 1    
     5    2    3 2    
     6    2    4 am   BACKBONE|DICT|INTERRES
     7    4    5 1    
     8    4   75 1    
     9    5    6 1    
    10    5   35 1    
    11    5   76 1    
    12    6    7 1    
    13    6   77 1    
    14    6   78 1    
    15    7    8 1    
    16    8    9 1    
    17    8   79 1    
    18    8   80 1    
    19    9   10 ar   
    20    9   14 ar   
    21   10   11 ar   
    22   10   81 1    
    23   11   12 ar   
    24   11   71 1    
    25   12   13 ar   
    26   12   82 1    
    27   13   14 ar   
    28   13   15 1    
    29   14   83 1    
    30   15   16 1    
    31   15   84 1    
    32   15   85 1    
    33   16   17 1    
    34   17   18 1    
    35   17   86 1    
    36   17   87 1    
    37   18   19 1    
    38   18   37 1    
    39   18   88 1    
    40   19   20 am   BACKBONE|DICT|INTERRES
    41   19   89 1    
    42   20   21 2    
    43   20   22 1    
    44   22   23 1    
    45   22   24 1    
    46   22   90 1    
    47   23   91 1    
    48   23   92 1    
    49   23   93 1    
    50   24   25 am   BACKBONE|DICT|INTERRES
    51   24   94 1    
    52   25   26 2    
    53   25   27 1    
    54   27   28 1    
    55   27   29 1    
    56   27   95 1    
    57   28   96 1    
    58   28   97 1    
    59   28   98 1    
    60   29   30 am   BACKBONE|DICT|INTERRES
    61   29   99 1    
    62   30   31 2    
    63   30   32 1    
    64   32   33 1    
    65   32   34 1    
    66   32  100 1    
    67   33  101 1    
    68   33  102 1    
    69   33  103 1    
    70   34   35 am   BACKBONE|DICT|INTERRES
    71   34  104 1    
    72   35   36 2    
    73   37   38 2    
    74   37   39 am   BACKBONE|DICT|INTERRES
    75   39   40 1    
    76   39  105 1    
    77   40   41 1    
    78   40   42 1    
    79   40  106 1    
    80   41  107 1    
    81   41  108 1    
    82   41  109 1    
    83   42   43 2    
    84   42   44 am   BACKBONE|DICT|INTERRES
    85   44   45 1    
    86   44  110 1    
    87   45   46 1    
    88   45   47 1    
    89   45  111 1    
    90   46  112 1    
    91   46  113 1    
    92   46  114 1    
    93   47   48 2    
    94   47   49 am   BACKBONE|DICT|INTERRES
    95   49   50 1    
    96   49  115 1    
    97   50   51 1    
    98   50   52 1    
    99   50  116 1    
   100   51  117 1    
   101   51  118 1    
   102   51  119 1    
   103   52   53 2    
   104   52   54 am   BACKBONE|DICT|INTERRES
   105   54   55 1    
   106   54  120 1    
   107   55   56 1    
   108   55   57 1    
   109   55  121 1    
   110   56  122 1    
   111   56  123 1    
   112   56  124 1    
   113   57   58 2    
   114   57   59 am   BACKBONE|DICT|INTERRES
   115   59   60 1    
   116   59  125 1    
   117   60   61 1    
   118   60   62 1    
   119   60  126 1    
   120   61  127 1    
   121   61  128 1    
   122   61  129 1    
   123   62   63 2    
   124   62   64 am   BACKBONE|DICT|INTERRES
   125   64   65 1    
   126   64  130 1    
   127   65   66 1    
   128   65   69 1    
   129   65  131 1    
   130   66   67 am   BACKBONE|DICT|INTERRES
   131   66   68 2    
   132   67  132 1    
   133   67  133 1    
   134   69   70 1    
   135   69  134 1    
   136   69  135 1    
   137   70   71 1    
   138   71  136 1    
   139   71  137 1    
@<TRIPOS>SUBSTRUCTURE
     1 UNK         1 GROUP             0       ****    0 ROOT    
