@<TRIPOS>MOLECULE
3R137
137   139    1
SMALL
USER_CHARGES


@<TRIPOS>ATOM
      1 CA         25.3706   -4.3445    2.3443 C.3       0 UNK        -0.2020 
      2 C          26.6517   -4.8714    1.7025 C.2       0 UNK         0.4855 
      3 O          26.8611   -6.0825    1.6844 O.2       0 UNK        -0.5197 
      4 N          27.5411   -4.0199    1.1712 N.am      1 UNK        -0.4892 
      5 CA         27.4332   -2.5582    1.0513 C.3       1 UNK         0.0835 
      6 C6         28.8044   -1.9014    0.7367 C.3       12 UNK        -0.0855 
      7 S7         29.7388   -2.7066   -0.6135 S.3       12 UNK        -0.2931 
      8 C8         29.4047   -1.5766   -1.9979 C.3       12 UNK         0.0378 
      9 C9         29.9082   -2.1465   -3.3153 C.ar      12 UNK        -0.0802 
     10 C10        30.9449   -1.5207   -4.0148 C.ar      12 UNK        -0.0944 
     11 C11        31.3879   -2.0313   -5.2428 C.ar      12 UNK        -0.0787 
     12 C12        30.7819   -3.1829   -5.7581 C.ar      12 UNK        -0.0862 
     13 C13        29.7445   -3.8166   -5.0689 C.ar      12 UNK        -0.0733 
     14 C14        29.3104   -3.2903   -3.8499 C.ar      12 UNK        -0.0832 
     15 C15        29.1028   -5.0780   -5.6322 C.3       12 UNK         0.0240 
     16 S16        28.0208   -4.7433   -7.0600 S.3       12 UNK        -0.2522 
     17 C17        26.6998   -3.7293   -6.3119 C.3       12 UNK        -0.0967 
     18 CA         26.3933   -2.4451   -7.1183 C.3       5 UNK         0.0660 
     19 N          25.1539   -1.8098   -6.6709 N.am      5 UNK        -0.4015 
     20 C          24.4875   -0.8712   -7.3583 C.2       4 UNK         0.4946 
     21 O          24.8043   -0.4869   -8.4842 O.2       4 UNK        -0.5353 
     22 CA         23.2859   -0.2242   -6.6485 C.3       4 UNK         0.0277 
     23 CB         22.0240   -1.0844   -6.8218 C.3       4 UNK        -0.1981 
     24 N          23.5347    0.0092   -5.2225 N.am      4 UNK        -0.4209 
     25 C          24.4414    0.8782   -4.7524 C.2       3 UNK         0.4942 
     26 O          25.1160    1.6138   -5.4712 O.2       3 UNK        -0.5208 
     27 CA         24.6630    0.9107   -3.2308 C.3       3 UNK         0.0250 
     28 CB         23.7097    1.9194   -2.5710 C.3       3 UNK        -0.1990 
     29 N          24.5297   -0.3933   -2.5721 N.am      3 UNK        -0.4232 
     30 C          25.2830   -1.4710   -2.8319 C.2       2 UNK         0.4993 
     31 O          26.1447   -1.5099   -3.7129 O.2       2 UNK        -0.5286 
     32 CA         25.0199   -2.7198   -1.9718 C.3       2 UNK         0.0209 
     33 CB         24.9055   -3.9821   -2.8440 C.3       2 UNK        -0.1931 
     34 N          26.0602   -2.9317   -0.9620 N.am      2 UNK        -0.4546 
     35 C          26.3382   -2.1077    0.0594 C.2       1 UNK         0.5154 
     36 O          25.7389   -1.0527    0.2683 O.2       1 UNK        -0.5181 
     37 C          27.5541   -1.4321   -7.1034 C.2       5 UNK         0.5014 
     38 O          28.2893   -1.3530   -8.0879 O.2       5 UNK        -0.5248 
     39 N          27.6537   -0.6318   -6.0296 N.am      6 UNK        -0.4434 
     40 CA         28.6249    0.4571   -5.8930 C.3       6 UNK         0.0363 
     41 CB         28.4807    1.1355   -4.5219 C.3       6 UNK        -0.1936 
     42 C          28.5240    1.4939   -7.0201 C.2       6 UNK         0.5081 
     43 O          29.5466    1.8369   -7.6104 O.2       6 UNK        -0.5248 
     44 N          27.2975    1.9371   -7.3274 N.am      7 UNK        -0.4718 
     45 CA         26.9983    2.8627   -8.4219 C.3       7 UNK         0.0273 
     46 CB         25.5213    3.2811   -8.3475 C.3       7 UNK        -0.1935 
     47 C          27.3288    2.2932   -9.8122 C.2       7 UNK         0.5018 
     48 O          27.8046    3.0411  -10.6672 O.2       7 UNK        -0.5186 
     49 N          27.0754    0.9924  -10.0139 N.am      8 UNK        -0.4240 
     50 CA         27.3719    0.2802  -11.2569 C.3       8 UNK         0.0235 
     51 CB         26.6045   -1.0520  -11.2892 C.3       8 UNK        -0.2000 
     52 C          28.8778    0.0504  -11.4635 C.2       8 UNK         0.4941 
     53 O          29.3873    0.3383  -12.5475 O.2       8 UNK        -0.5273 
     54 N          29.5563   -0.4813  -10.4375 N.am      9 UNK        -0.4262 
     55 CA         30.9751   -0.8411  -10.4894 C.3       9 UNK         0.0264 
     56 CB         31.2669   -1.9120   -9.4280 C.3       9 UNK        -0.1955 
     57 C          31.9239    0.3612  -10.3462 C.2       9 UNK         0.5031 
     58 O          33.0057    0.3301  -10.9346 O.2       9 UNK        -0.5390 
     59 N          31.5133    1.3888   -9.5859 N.am      10 UNK        -0.4204 
     60 CA         32.2148    2.6590   -9.3528 C.3       10 UNK         0.0237 
     61 CB         32.2447    3.5030  -10.6455 C.3       10 UNK        -0.1985 
     62 C          33.6048    2.4992   -8.7016 C.2       10 UNK         0.4970 
     63 O          34.5343    3.2272   -9.0577 O.2       10 UNK        -0.4914 
     64 N          33.7272    1.5518   -7.7617 N.am      11 UNK        -0.4285 
     65 CA         34.9529    1.3085   -6.9862 C.3       11 UNK         0.1007 
     66 C          35.2502    2.4145   -5.9324 C.2       11 UNK         0.5703 
     67 N          36.4846    2.4954   -5.4536 N.am      11 UNK        -0.7361 
     68 O          34.3782    3.1847   -5.5321 O.2       11 UNK        -0.4986 
     69 C69        34.9918   -0.1277   -6.3951 C.3       12 UNK        -0.0947 
     70 S70        33.7538   -0.4859   -5.0985 S.3       12 UNK        -0.2240 
     71 C71        32.4689   -1.3362   -6.0695 C.3       12 UNK         0.0194 
     72 H72        25.5726   -3.5260    3.0337 H         1 UNK         0.0906 
     73 H73        24.6686   -4.0034    1.5843 H         1 UNK         0.0906 
     74 H74        24.8812   -5.1341    2.9143 H         1 UNK         0.0906 
     75 H75        28.3846   -4.4017    0.7643 H         1 UNK         0.3140 
     76 H76        27.1270   -2.1720    2.0254 H         1 UNK         0.1085 
     77 H77        28.6956   -0.8335    0.5346 H         1 UNK         0.0836 
     78 H78        29.4311   -1.9571    1.6284 H         1 UNK         0.0836 
     79 H79        29.8651   -0.6096   -1.7896 H         1 UNK         0.0731 
     80 H80        28.3321   -1.4004   -2.0766 H         1 UNK         0.0731 
     81 H81        31.3892   -0.6219   -3.6110 H         1 UNK         0.1312 
     82 H82        31.1048   -3.5834   -6.7095 H         1 UNK         0.1406 
     83 H83        28.5049   -3.7682   -3.3096 H         1 UNK         0.1631 
     84 H84        28.5281   -5.5975   -4.8637 H         1 UNK         0.0717 
     85 H85        29.8872   -5.7696   -5.9427 H         1 UNK         0.0717 
     86 H86        25.8074   -4.3549   -6.2595 H         1 UNK         0.0934 
     87 H87        26.9484   -3.4820   -5.2810 H         1 UNK         0.0934 
     88 H88        26.2389   -2.7404   -8.1588 H         1 UNK         0.0739 
     89 H89        24.8627   -2.0131   -5.7263 H         1 UNK         0.3093 
     90 H90        23.1068    0.7440   -7.1217 H         1 UNK         0.0818 
     91 H91        21.1487   -0.5948   -6.3946 H         1 UNK         0.0819 
     92 H92        21.8128   -1.2558   -7.8785 H         1 UNK         0.0819 
     93 H93        22.1279   -2.0613   -6.3480 H         1 UNK         0.0819 
     94 H94        23.0072   -0.5428   -4.5619 H         1 UNK         0.3041 
     95 H95        25.6854    1.2522   -3.0596 H         1 UNK         0.0784 
     96 H96        23.8081    2.9054   -3.0278 H         1 UNK         0.0793 
     97 H97        22.6666    1.6165   -2.6704 H         1 UNK         0.0793 
     98 H98        23.9272    2.0345   -1.5088 H         1 UNK         0.0793 
     99 H99        23.8729   -0.4400   -1.8059 H         1 UNK         0.3024 
    100 H100       24.0689   -2.5880   -1.4510 H         1 UNK         0.1171 
    101 H101       24.5851   -4.8411   -2.2540 H         1 UNK         0.0786 
    102 H102       24.1719   -3.8468   -3.6399 H         1 UNK         0.0786 
    103 H103       25.8554   -4.2384   -3.3130 H         1 UNK         0.0786 
    104 H104       26.6134   -3.7719   -1.0482 H         1 UNK         0.2977 
    105 H105       27.0401   -0.8049   -5.2367 H         1 UNK         0.3127 
    106 H106       29.6157    0.0078   -5.9524 H         1 UNK         0.0770 
    107 H107       27.5733    1.7345   -4.4572 H         1 UNK         0.0814 
    108 H108       29.3219    1.8035   -4.3333 H         1 UNK         0.0814 
    109 H109       28.4539    0.4076   -3.7144 H         1 UNK         0.0814 
    110 H110       26.5129    1.6417   -6.7499 H         1 UNK         0.2983 
    111 H111       27.6145    3.7529   -8.2786 H         1 UNK         0.0947 
    112 H112       25.2723    3.9845   -9.1431 H         1 UNK         0.0806 
    113 H113       25.2956    3.7697   -7.3994 H         1 UNK         0.0806 
    114 H114       24.8549    2.4231   -8.4469 H         1 UNK         0.0806 
    115 H115       26.6470    0.4569   -9.2672 H         1 UNK         0.3000 
    116 H116       27.0139    0.8911  -12.0886 H         1 UNK         0.0850 
    117 H117       26.8017   -1.5945  -12.2147 H         1 UNK         0.0810 
    118 H118       25.5281   -0.8890  -11.2315 H         1 UNK         0.0810 
    119 H119       26.8862   -1.7037  -10.4616 H         1 UNK         0.0810 
    120 H120       29.0542   -0.7163   -9.5801 H         1 UNK         0.3040 
    121 H121       31.1777   -1.2877  -11.4655 H         1 UNK         0.0766 
    122 H122       30.9302   -1.5957   -8.4429 H         1 UNK         0.0812 
    123 H123       32.3333   -2.1332   -9.3653 H         1 UNK         0.0812 
    124 H124       30.7538   -2.8450   -9.6617 H         1 UNK         0.0812 
    125 H125       30.6266    1.3098   -9.0916 H         1 UNK         0.3205 
    126 H126       31.6132    3.2066   -8.6264 H         1 UNK         0.0754 
    127 H127       32.6389    4.5018  -10.4541 H         1 UNK         0.0769 
    128 H128       31.2434    3.6254  -11.0594 H         1 UNK         0.0769 
    129 H129       32.8711    3.0463  -11.4125 H         1 UNK         0.0769 
    130 H130       32.9104    1.0304   -7.4862 H         1 UNK         0.2981 
    131 H131       35.7757    1.3601   -7.7023 H         1 UNK         0.0541 
    132 H132       37.2088    1.8677   -5.7663 H         1 UNK         0.3459 
    133 H133       36.6963    3.1998   -4.7643 H         1 UNK         0.3459 
    134 H134       35.9754   -0.3201   -5.9635 H         1 UNK         0.0612 
    135 H135       34.8926   -0.8556   -7.2016 H         1 UNK         0.0612 
    136 H136       32.9522   -2.0649   -6.7220 H         1 UNK         0.0624 
    137 H137       31.9892   -0.5987   -6.7118 H         1 UNK         0.0624 
@<TRIPOS>BOND
     1    1    2 1    
     2    1   72 1    
     3    1   73 1    
     4    1   74 1    
     5    2    3 2    
     6    2    4 am   BACKBONE|DICT|INTERRES
     7    4    5 1    
     8    4   75 1    
     9    5    6 1    
    10    5   35 1    
    11    5   76 1    
    12    6    7 1    
    13    6   77 1    
    14    6   78 1    
    15    7    8 1    
    16    8    9 1    
    17    8   79 1    
    18    8   80 1    
    19    9   10 ar   
    20    9   14 ar   
    21   10   11 ar   
    22   10   81 1    
    23   11   12 ar   
    24   11   71 1    
    25   12   13 ar   
    26   12   82 1    
    27   13   14 ar   
    28   13   15 1    
    29   14   83 1    
    30   15   16 1    
    31   15   84 1    
    32   15   85 1    
    33   16   17 1    
    34   17   18 1    
    35   17   86 1    
    36   17   87 1    
    37   18   19 1    
    38   18   37 1    
    39   18   88 1    
    40   19   20 am   BACKBONE|DICT|INTERRES
    41   19   89 1    
    42   20   21 2    
    43   20   22 1    
    44   22   23 1    
    45   22   24 1    
    46   22   90 1    
    47   23   91 1    
    48   23   92 1    
    49   23   93 1    
    50   24   25 am   BACKBONE|DICT|INTERRES
    51   24   94 1    
    52   25   26 2    
    53   25   27 1    
    54   27   28 1    
    55   27   29 1    
    56   27   95 1    
    57   28   96 1    
    58   28   97 1    
    59   28   98 1    
    60   29   30 am   BACKBONE|DICT|INTERRES
    61   29   99 1    
    62   30   31 2    
    63   30   32 1    
    64   32   33 1    
    65   32   34 1    
    66   32  100 1    
    67   33  101 1    
    68   33  102 1    
    69   33  103 1    
    70   34   35 am   BACKBONE|DICT|INTERRES
    71   34  104 1    
    72   35   36 2    
    73   37   38 2    
    74   37   39 am   BACKBONE|DICT|INTERRES
    75   39   40 1    
    76   39  105 1    
    77   40   41 1    
    78   40   42 1    
    79   40  106 1    
    80   41  107 1    
    81   41  108 1    
    82   41  109 1    
    83   42   43 2    
    84   42   44 am   BACKBONE|DICT|INTERRES
    85   44   45 1    
    86   44  110 1    
    87   45   46 1    
    88   45   47 1    
    89   45  111 1    
    90   46  112 1    
    91   46  113 1    
    92   46  114 1    
    93   47   48 2    
    94   47   49 am   BACKBONE|DICT|INTERRES
    95   49   50 1    
    96   49  115 1    
    97   50   51 1    
    98   50   52 1    
    99   50  116 1    
   100   51  117 1    
   101   51  118 1    
   102   51  119 1    
   103   52   53 2    
   104   52   54 am   BACKBONE|DICT|INTERRES
   105   54   55 1    
   106   54  120 1    
   107   55   56 1    
   108   55   57 1    
   109   55  121 1    
   110   56  122 1    
   111   56  123 1    
   112   56  124 1    
   113   57   58 2    
   114   57   59 am   BACKBONE|DICT|INTERRES
   115   59   60 1    
   116   59  125 1    
   117   60   61 1    
   118   60   62 1    
   119   60  126 1    
   120   61  127 1    
   121   61  128 1    
   122   61  129 1    
   123   62   63 2    
   124   62   64 am   BACKBONE|DICT|INTERRES
   125   64   65 1    
   126   64  130 1    
   127   65   66 1    
   128   65   69 1    
   129   65  131 1    
   130   66   67 am   BACKBONE|DICT|INTERRES
   131   66   68 2    
   132   67  132 1    
   133   67  133 1    
   134   69   70 1    
   135   69  134 1    
   136   69  135 1    
   137   70   71 1    
   138   71  136 1    
   139   71  137 1    
@<TRIPOS>SUBSTRUCTURE
     1 UNK         1 GROUP             0       ****    0 ROOT    
