@<TRIPOS>MOLECULE
3R137
137   139    1
SMALL
USER_CHARGES


@<TRIPOS>ATOM
      1 CA         24.5871   -2.9263    0.8263 C.3       0 UNK        -0.2020 
      2 C          25.5793   -3.9326    0.2612 C.2       0 UNK         0.4855 
      3 O          25.4582   -5.1245    0.5467 O.2       0 UNK        -0.5197 
      4 N          26.5508   -3.4466   -0.5250 N.am      1 UNK        -0.4892 
      5 CA         27.6112   -4.1911   -1.2251 C.3       1 UNK         0.0835 
      6 C6         28.4779   -5.0995   -0.3050 C.3       12 UNK        -0.0855 
      7 S7         29.2433   -4.1995    1.0847 S.3       12 UNK        -0.2931 
      8 C8         30.9075   -3.8658    0.4258 C.3       12 UNK         0.0378 
      9 C9         30.8808   -2.8341   -0.6933 C.ar      12 UNK        -0.0802 
     10 C10        31.2090   -3.1940   -2.0059 C.ar      12 UNK        -0.0944 
     11 C11        31.2279   -2.2314   -3.0221 C.ar      12 UNK        -0.0787 
     12 C12        30.9236   -0.9037   -2.7108 C.ar      12 UNK        -0.0862 
     13 C13        30.5435   -0.5441   -1.4171 C.ar      12 UNK        -0.0733 
     14 C14        30.5368   -1.5091   -0.4079 C.ar      12 UNK        -0.0832 
     15 C15        30.1190    0.8837   -1.1253 C.3       12 UNK         0.0240 
     16 S16        28.3440    1.0907   -1.4788 S.3       12 UNK        -0.2522 
     17 C17        28.3345    2.6361   -2.4455 C.3       12 UNK        -0.0967 
     18 CA         28.2783    2.3847   -3.9743 C.3       5 UNK         0.0660 
     19 N          27.0637    1.6643   -4.3697 N.am      5 UNK        -0.4015 
     20 C          26.6917    1.3241   -5.6122 C.2       4 UNK         0.4946 
     21 O          27.3280    1.5906   -6.6381 O.2       4 UNK        -0.5353 
     22 CA         25.3557    0.5659   -5.7249 C.3       4 UNK         0.0277 
     23 CB         24.3481    1.3460   -6.5848 C.3       4 UNK        -0.1981 
     24 N          25.5190   -0.7826   -6.2736 N.am      4 UNK        -0.4209 
     25 C          26.1707   -1.7802   -5.6622 C.2       3 UNK         0.4942 
     26 O          26.7213   -1.6654   -4.5628 O.2       3 UNK        -0.5208 
     27 CA         26.1822   -3.1401   -6.3808 C.3       3 UNK         0.0250 
     28 CB         26.7794   -3.0690   -7.7989 C.3       3 UNK        -0.1990 
     29 N          26.9492   -4.0701   -5.5644 N.am      3 UNK        -0.4232 
     30 C          26.8772   -5.4039   -5.5865 C.2       2 UNK         0.4993 
     31 O          26.1791   -6.0436   -6.3744 O.2       2 UNK        -0.5286 
     32 CA         27.7191   -6.1574   -4.5408 C.3       2 UNK         0.0209 
     33 CB         29.0455   -6.6311   -5.1581 C.3       2 UNK        -0.1931 
     34 N          28.0040   -5.3739   -3.3317 N.am      2 UNK        -0.4546 
     35 C          27.0805   -4.9847   -2.4396 C.2       1 UNK         0.5154 
     36 O          25.8794   -5.2393   -2.5609 O.2       1 UNK        -0.5181 
     37 C          28.4177    3.7202   -4.7264 C.2       5 UNK         0.5014 
     38 O          27.5496    4.5848   -4.5872 O.2       5 UNK        -0.5248 
     39 N          29.5071    3.8518   -5.4961 N.am      6 UNK        -0.4434 
     40 CA         29.8857    5.0105   -6.3144 C.3       6 UNK         0.0363 
     41 CB         30.2442    6.2116   -5.4131 C.3       6 UNK        -0.1936 
     42 C          28.8641    5.3832   -7.4116 C.2       6 UNK         0.5081 
     43 O          28.8776    6.5248   -7.8760 O.2       6 UNK        -0.5248 
     44 N          28.0066    4.4353   -7.8149 N.am      7 UNK        -0.4718 
     45 CA         26.9443    4.6513   -8.7991 C.3       7 UNK         0.0273 
     46 CB         25.5903    4.7633   -8.0806 C.3       7 UNK        -0.1935 
     47 C          26.9197    3.5531   -9.8674 C.2       7 UNK         0.5018 
     48 O          26.8092    3.8777  -11.0509 O.2       7 UNK        -0.5186 
     49 N          27.0245    2.2832   -9.4542 N.am      8 UNK        -0.4240 
     50 CA         27.0962    1.1421  -10.3678 C.3       8 UNK         0.0235 
     51 CB         26.6094   -0.1112   -9.6326 C.3       8 UNK        -0.2000 
     52 C          28.5343    0.9348  -10.8561 C.2       8 UNK         0.4941 
     53 O          29.4713    1.1970  -10.1030 O.2       8 UNK        -0.5273 
     54 N          28.6993    0.3960  -12.0710 N.am      9 UNK        -0.4262 
     55 CA         30.0061    0.1401  -12.6957 C.3       9 UNK         0.0264 
     56 CB         29.7908   -0.4088  -14.1157 C.3       9 UNK        -0.1955 
     57 C          30.9362   -0.7942  -11.8940 C.2       9 UNK         0.5031 
     58 O          32.1565   -0.6779  -12.0153 O.2       9 UNK        -0.5390 
     59 N          30.3486   -1.6909  -11.0912 N.am      10 UNK        -0.4204 
     60 CA         31.0635   -2.6262  -10.2242 C.3       10 UNK         0.0237 
     61 CB         30.1773   -3.8621   -9.9913 C.3       10 UNK        -0.1985 
     62 C          31.4969   -2.0274   -8.8726 C.2       10 UNK         0.4970 
     63 O          32.4124   -2.5853   -8.2657 O.2       10 UNK        -0.4914 
     64 N          30.8385   -0.9550   -8.4047 N.am      11 UNK        -0.4285 
     65 CA         30.9855   -0.4318   -7.0322 C.3       11 UNK         0.1007 
     66 C          31.1119    1.1126   -6.9205 C.2       11 UNK         0.5703 
     67 N          31.0512    1.8845   -7.9942 N.am      11 UNK        -0.7361 
     68 O          31.3001    1.6340   -5.8233 O.2       11 UNK        -0.4986 
     69 C69        29.8946   -1.0015   -6.0778 C.3       12 UNK        -0.0947 
     70 S70        30.1844   -2.7352   -5.5734 S.3       12 UNK        -0.2240 
     71 C71        31.6166   -2.6153   -4.4440 C.3       12 UNK         0.0194 
     72 H72        23.5777   -3.1687    0.4948 H         1 UNK         0.0906 
     73 H73        24.6041   -2.9545    1.9156 H         1 UNK         0.0906 
     74 H74        24.8117   -1.9074    0.5110 H         1 UNK         0.0906 
     75 H75        26.5559   -2.4540   -0.7142 H         1 UNK         0.3140 
     76 H76        28.2614   -3.4188   -1.6397 H         1 UNK         0.1085 
     77 H77        29.2703   -5.5872   -0.8753 H         1 UNK         0.0836 
     78 H78        27.8804   -5.9132    0.1084 H         1 UNK         0.0836 
     79 H79        31.5363   -3.4928    1.2355 H         1 UNK         0.0731 
     80 H80        31.3648   -4.7988    0.0926 H         1 UNK         0.0731 
     81 H81        31.4687   -4.2189   -2.2330 H         1 UNK         0.1312 
     82 H82        30.9712   -0.1419   -3.4740 H         1 UNK         0.1406 
     83 H83        30.2547   -1.2339    0.5996 H         1 UNK         0.1631 
     84 H84        30.7192    1.5689   -1.7256 H         1 UNK         0.0717 
     85 H85        30.3114    1.1388   -0.0821 H         1 UNK         0.0717 
     86 H86        27.4713    3.2241   -2.1264 H         1 UNK         0.0934 
     87 H87        29.2085    3.2335   -2.1780 H         1 UNK         0.0934 
     88 H88        29.1214    1.7459   -4.2414 H         1 UNK         0.0739 
     89 H89        26.4749    1.3775   -3.6021 H         1 UNK         0.3093 
     90 H90        24.9249    0.4603   -4.7267 H         1 UNK         0.0818 
     91 H91        23.3911    0.8276   -6.6457 H         1 UNK         0.0819 
     92 H92        24.1516    2.3283   -6.1537 H         1 UNK         0.0819 
     93 H93        24.7114    1.4997   -7.6012 H         1 UNK         0.0819 
     94 H94        25.0993   -0.9553   -7.1744 H         1 UNK         0.3041 
     95 H95        25.1518   -3.4974   -6.4367 H         1 UNK         0.0784 
     96 H96        26.9200   -4.0618   -8.2262 H         1 UNK         0.0793 
     97 H97        26.1107   -2.5365   -8.4725 H         1 UNK         0.0793 
     98 H98        27.7468   -2.5673   -7.8073 H         1 UNK         0.0793 
     99 H99        27.5113   -3.6148   -4.8549 H         1 UNK         0.3024 
    100 H100       27.1447   -7.0374   -4.2420 H         1 UNK         0.1171 
    101 H101       29.6728   -5.7925   -5.4624 H         1 UNK         0.0786 
    102 H102       28.8666   -7.2409   -6.0450 H         1 UNK         0.0786 
    103 H103       29.6153   -7.2417   -4.4574 H         1 UNK         0.0786 
    104 H104       28.9696   -5.1191   -3.1820 H         1 UNK         0.2977 
    105 H105       30.1488    3.0620   -5.5493 H         1 UNK         0.3127 
    106 H106       30.7945    4.7207   -6.8425 H         1 UNK         0.0770 
    107 H107       29.3671    6.6079   -4.9005 H         1 UNK         0.0814 
    108 H108       30.6747    7.0267   -5.9961 H         1 UNK         0.0814 
    109 H109       30.9792    5.9357   -4.6571 H         1 UNK         0.0814 
    110 H110       28.0582    3.5166   -7.3890 H         1 UNK         0.2983 
    111 H111       27.1126    5.5884   -9.3348 H         1 UNK         0.0947 
    112 H112       24.7701    4.8577   -8.7936 H         1 UNK         0.0806 
    113 H113       25.5617    5.6397   -7.4330 H         1 UNK         0.0806 
    114 H114       25.3931    3.8897   -7.4616 H         1 UNK         0.0806 
    115 H115       27.1540    2.0791   -8.4664 H         1 UNK         0.3000 
    116 H116       26.4476    1.3186  -11.2289 H         1 UNK         0.0850 
    117 H117       27.2064   -0.3024   -8.7399 H         1 UNK         0.0810 
    118 H118       25.5681   -0.0091   -9.3291 H         1 UNK         0.0810 
    119 H119       26.6736   -0.9921  -10.2726 H         1 UNK         0.0810 
    120 H120       27.8826    0.1848  -12.6272 H         1 UNK         0.3040 
    121 H121       30.5173    1.1018  -12.7772 H         1 UNK         0.0766 
    122 H122       29.2299    0.2931  -14.7332 H         1 UNK         0.0812 
    123 H123       29.2502   -1.3561  -14.1053 H         1 UNK         0.0812 
    124 H124       30.7447   -0.5841  -14.6155 H         1 UNK         0.0812 
    125 H125       29.3403   -1.7217  -11.0695 H         1 UNK         0.3205 
    126 H126       31.9695   -2.9569  -10.7371 H         1 UNK         0.0754 
    127 H127       30.6866   -4.5968   -9.3656 H         1 UNK         0.0769 
    128 H128       29.9298   -4.3564  -10.9309 H         1 UNK         0.0769 
    129 H129       29.2440   -3.6030   -9.4912 H         1 UNK         0.0769 
    130 H130       30.1662   -0.4785   -8.9925 H         1 UNK         0.2981 
    131 H131       31.9580   -0.7506   -6.6600 H         1 UNK         0.0541 
    132 H132       31.2025    2.8727   -7.8994 H         1 UNK         0.3459 
    133 H133       30.7205    1.5206   -8.8850 H         1 UNK         0.3459 
    134 H134       28.9237   -0.9482   -6.5700 H         1 UNK         0.0612 
    135 H135       29.7671   -0.4030   -5.1802 H         1 UNK         0.0612 
    136 H136       32.3511   -1.9071   -4.8251 H         1 UNK         0.0624 
    137 H137       32.1188   -3.5837   -4.4406 H         1 UNK         0.0624 
@<TRIPOS>BOND
     1    1    2 1    
     2    1   72 1    
     3    1   73 1    
     4    1   74 1    
     5    2    3 2    
     6    2    4 am   BACKBONE|DICT|INTERRES
     7    4    5 1    
     8    4   75 1    
     9    5    6 1    
    10    5   35 1    
    11    5   76 1    
    12    6    7 1    
    13    6   77 1    
    14    6   78 1    
    15    7    8 1    
    16    8    9 1    
    17    8   79 1    
    18    8   80 1    
    19    9   10 ar   
    20    9   14 ar   
    21   10   11 ar   
    22   10   81 1    
    23   11   12 ar   
    24   11   71 1    
    25   12   13 ar   
    26   12   82 1    
    27   13   14 ar   
    28   13   15 1    
    29   14   83 1    
    30   15   16 1    
    31   15   84 1    
    32   15   85 1    
    33   16   17 1    
    34   17   18 1    
    35   17   86 1    
    36   17   87 1    
    37   18   19 1    
    38   18   37 1    
    39   18   88 1    
    40   19   20 am   BACKBONE|DICT|INTERRES
    41   19   89 1    
    42   20   21 2    
    43   20   22 1    
    44   22   23 1    
    45   22   24 1    
    46   22   90 1    
    47   23   91 1    
    48   23   92 1    
    49   23   93 1    
    50   24   25 am   BACKBONE|DICT|INTERRES
    51   24   94 1    
    52   25   26 2    
    53   25   27 1    
    54   27   28 1    
    55   27   29 1    
    56   27   95 1    
    57   28   96 1    
    58   28   97 1    
    59   28   98 1    
    60   29   30 am   BACKBONE|DICT|INTERRES
    61   29   99 1    
    62   30   31 2    
    63   30   32 1    
    64   32   33 1    
    65   32   34 1    
    66   32  100 1    
    67   33  101 1    
    68   33  102 1    
    69   33  103 1    
    70   34   35 am   BACKBONE|DICT|INTERRES
    71   34  104 1    
    72   35   36 2    
    73   37   38 2    
    74   37   39 am   BACKBONE|DICT|INTERRES
    75   39   40 1    
    76   39  105 1    
    77   40   41 1    
    78   40   42 1    
    79   40  106 1    
    80   41  107 1    
    81   41  108 1    
    82   41  109 1    
    83   42   43 2    
    84   42   44 am   BACKBONE|DICT|INTERRES
    85   44   45 1    
    86   44  110 1    
    87   45   46 1    
    88   45   47 1    
    89   45  111 1    
    90   46  112 1    
    91   46  113 1    
    92   46  114 1    
    93   47   48 2    
    94   47   49 am   BACKBONE|DICT|INTERRES
    95   49   50 1    
    96   49  115 1    
    97   50   51 1    
    98   50   52 1    
    99   50  116 1    
   100   51  117 1    
   101   51  118 1    
   102   51  119 1    
   103   52   53 2    
   104   52   54 am   BACKBONE|DICT|INTERRES
   105   54   55 1    
   106   54  120 1    
   107   55   56 1    
   108   55   57 1    
   109   55  121 1    
   110   56  122 1    
   111   56  123 1    
   112   56  124 1    
   113   57   58 2    
   114   57   59 am   BACKBONE|DICT|INTERRES
   115   59   60 1    
   116   59  125 1    
   117   60   61 1    
   118   60   62 1    
   119   60  126 1    
   120   61  127 1    
   121   61  128 1    
   122   61  129 1    
   123   62   63 2    
   124   62   64 am   BACKBONE|DICT|INTERRES
   125   64   65 1    
   126   64  130 1    
   127   65   66 1    
   128   65   69 1    
   129   65  131 1    
   130   66   67 am   BACKBONE|DICT|INTERRES
   131   66   68 2    
   132   67  132 1    
   133   67  133 1    
   134   69   70 1    
   135   69  134 1    
   136   69  135 1    
   137   70   71 1    
   138   71  136 1    
   139   71  137 1    
@<TRIPOS>SUBSTRUCTURE
     1 UNK         1 GROUP             0       ****    0 ROOT    
