@<TRIPOS>MOLECULE
3R137
137   139    1
SMALL
USER_CHARGES


@<TRIPOS>ATOM
      1 CA         30.9522   -4.2318   -1.1350 C.3       0 UNK        -0.2020 
      2 C          29.5870   -4.0942   -0.4779 C.2       0 UNK         0.4855 
      3 O          29.0888   -5.0533    0.1106 O.2       0 UNK        -0.5197 
      4 N          28.9754   -2.9069   -0.5768 N.am      1 UNK        -0.4892 
      5 CA         27.6699   -2.5746    0.0091 C.3       1 UNK         0.0835 
      6 C6         27.5177   -1.0439    0.2050 C.3       12 UNK        -0.0855 
      7 S7         27.2649   -0.0794   -1.3296 S.3       12 UNK        -0.2931 
      8 C8         28.9049    0.6709   -1.6364 C.3       12 UNK         0.0378 
      9 C9         29.8462   -0.1172   -2.5521 C.ar      12 UNK        -0.0802 
     10 C10        31.1465    0.3682   -2.7252 C.ar      12 UNK        -0.0944 
     11 C11        32.0608   -0.3021   -3.5418 C.ar      12 UNK        -0.0787 
     12 C12        31.6738   -1.4810   -4.1826 C.ar      12 UNK        -0.0862 
     13 C13        30.3805   -1.9825   -4.0244 C.ar      12 UNK        -0.0733 
     14 C14        29.4651   -1.2849   -3.2296 C.ar      12 UNK        -0.0832 
     15 C15        30.0031   -3.3050   -4.6760 C.3       12 UNK         0.0240 
     16 S16        29.3898   -3.0919   -6.3727 S.3       12 UNK        -0.2522 
     17 C17        27.6402   -2.6820   -6.0844 C.3       12 UNK        -0.0967 
     18 CA         27.0806   -1.5751   -7.0063 C.3       5 UNK         0.0660 
     19 N          25.6179   -1.5537   -6.9188 N.am      5 UNK        -0.4015 
     20 C          24.8040   -0.7309   -7.5940 C.2       4 UNK         0.4946 
     21 O          25.1865    0.0083   -8.5008 O.2       4 UNK        -0.5353 
     22 CA         23.3310   -0.6597   -7.1483 C.3       4 UNK         0.0277 
     23 CB         22.4322   -1.3883   -8.1595 C.3       4 UNK        -0.1981 
     24 N          23.0610   -1.1783   -5.8004 N.am      4 UNK        -0.4209 
     25 C          23.6267   -0.7703   -4.6526 C.2       3 UNK         0.4942 
     26 O          24.4784    0.1169   -4.5878 O.2       3 UNK        -0.5208 
     27 CA         23.2052   -1.5074   -3.3650 C.3       3 UNK         0.0250 
     28 CB         21.8279   -2.1985   -3.4768 C.3       3 UNK        -0.1990 
     29 N          24.2018   -2.4767   -2.8861 N.am      3 UNK        -0.4232 
     30 C          24.8435   -3.4239   -3.5871 C.2       2 UNK         0.4993 
     31 O          24.7797   -3.5328   -4.8139 O.2       2 UNK        -0.5286 
     32 CA         25.6950   -4.4225   -2.7743 C.3       2 UNK         0.0209 
     33 CB         26.3985   -5.4701   -3.6583 C.3       2 UNK        -0.1931 
     34 N          26.6981   -3.7684   -1.9297 N.am      2 UNK        -0.4546 
     35 C          26.4655   -3.1949   -0.7405 C.2       1 UNK         0.5154 
     36 O          25.3408   -3.1257   -0.2410 O.2       1 UNK        -0.5181 
     37 C          27.7167   -0.1913   -6.7222 C.2       5 UNK         0.5014 
     38 O          28.7042    0.1576   -7.3728 O.2       5 UNK        -0.5248 
     39 N          27.1100    0.5937   -5.8144 N.am      6 UNK        -0.4434 
     40 CA         27.4998    1.9743   -5.5166 C.3       6 UNK         0.0363 
     41 CB         26.7711    2.4552   -4.2527 C.3       6 UNK        -0.1936 
     42 C          27.1895    2.9380   -6.6716 C.2       6 UNK         0.5081 
     43 O          28.0024    3.8142   -6.9619 O.2       6 UNK        -0.5248 
     44 N          26.0217    2.7605   -7.3068 N.am      7 UNK        -0.4718 
     45 CA         25.5618    3.5624   -8.4446 C.3       7 UNK         0.0273 
     46 CB         24.0587    3.3317   -8.6708 C.3       7 UNK        -0.1935 
     47 C          26.3640    3.2644   -9.7200 C.2       7 UNK         0.5018 
     48 O          26.6943    4.1911  -10.4606 O.2       7 UNK        -0.5186 
     49 N          26.6967    1.9827   -9.9270 N.am      8 UNK        -0.4240 
     50 CA         27.6175    1.5166  -10.9660 C.3       8 UNK         0.0235 
     51 CB         27.5088   -0.0131  -11.0784 C.3       8 UNK        -0.2000 
     52 C          29.0795    1.9251  -10.7032 C.2       8 UNK         0.4941 
     53 O          29.8559    2.0077  -11.6553 O.2       8 UNK        -0.5273 
     54 N          29.4219    2.1470   -9.4238 N.am      9 UNK        -0.4262 
     55 CA         30.7545    2.4201   -8.8748 C.3       9 UNK         0.0264 
     56 CB         31.2772    3.7932   -9.3453 C.3       9 UNK        -0.1955 
     57 C          31.7362    1.2671   -9.1523 C.2       9 UNK         0.5031 
     58 O          32.9022    1.5051   -9.4771 O.2       9 UNK        -0.5390 
     59 N          31.2450    0.0263   -9.0311 N.am      10 UNK        -0.4204 
     60 CA         31.9624   -1.2018   -9.3835 C.3       10 UNK         0.0237 
     61 CB         30.9431   -2.2732   -9.8109 C.3       10 UNK        -0.1985 
     62 C          32.9141   -1.6641   -8.2628 C.2       10 UNK         0.4970 
     63 O          32.8602   -2.8176   -7.8337 O.2       10 UNK        -0.4914 
     64 N          33.7738   -0.7445   -7.8134 N.am      11 UNK        -0.4285 
     65 CA         34.7790   -0.9541   -6.7614 C.3       11 UNK         0.1007 
     66 C          36.0776   -1.6613   -7.2460 C.2       11 UNK         0.5703 
     67 N          36.2756   -1.8847   -8.5402 N.am      11 UNK        -0.7361 
     68 O          36.9189   -2.0259   -6.4280 O.2       11 UNK        -0.4986 
     69 C69        35.1016    0.3662   -6.0119 C.3       12 UNK        -0.0947 
     70 S70        33.6209    1.1505   -5.2889 S.3       12 UNK        -0.2240 
     71 C71        33.4706    0.2366   -3.7225 C.3       12 UNK         0.0194 
     72 H72        30.8982   -4.9246   -1.9742 H         1 UNK         0.0906 
     73 H73        31.6753   -4.6210   -0.4188 H         1 UNK         0.0906 
     74 H74        31.3268   -3.2767   -1.5033 H         1 UNK         0.0906 
     75 H75        29.4353   -2.1494   -1.0643 H         1 UNK         0.3140 
     76 H76        27.6478   -3.0217    1.0059 H         1 UNK         0.1085 
     77 H77        28.3753   -0.6513    0.7531 H         1 UNK         0.0836 
     78 H78        26.6593   -0.8480    0.8505 H         1 UNK         0.0836 
     79 H79        28.7486    1.6526   -2.0840 H         1 UNK         0.0731 
     80 H80        29.3999    0.8589   -0.6828 H         1 UNK         0.0731 
     81 H81        31.4494    1.2768   -2.2224 H         1 UNK         0.1312 
     82 H82        32.3794   -2.0120   -4.8063 H         1 UNK         0.1406 
     83 H83        28.4617   -1.6685   -3.1293 H         1 UNK         0.1631 
     84 H84        29.2646   -3.8355   -4.0746 H         1 UNK         0.0717 
     85 H85        30.8790   -3.9549   -4.7097 H         1 UNK         0.0717 
     86 H86        27.0837   -3.6051   -6.2538 H         1 UNK         0.0934 
     87 H87        27.4732   -2.4241   -5.0390 H         1 UNK         0.0934 
     88 H88        27.3251   -1.8345   -8.0382 H         1 UNK         0.0739 
     89 H89        25.2069   -2.1513   -6.2067 H         1 UNK         0.3093 
     90 H90        23.0551    0.3966   -7.1453 H         1 UNK         0.0818 
     91 H91        22.5881   -1.0040   -9.1689 H         1 UNK         0.0819 
     92 H92        22.6381   -2.4592   -8.1834 H         1 UNK         0.0819 
     93 H93        21.3764   -1.2525   -7.9245 H         1 UNK         0.0819 
     94 H94        22.4055   -1.9443   -5.7432 H         1 UNK         0.3041 
     95 H95        23.1268   -0.7397   -2.5936 H         1 UNK         0.0784 
     96 H96        21.0629   -1.5059   -3.8312 H         1 UNK         0.0793 
     97 H97        21.8471   -3.0537   -4.1536 H         1 UNK         0.0793 
     98 H98        21.4974   -2.5629   -2.5039 H         1 UNK         0.0793 
     99 H99        24.3821   -2.4608   -1.8867 H         1 UNK         0.3024 
    100 H100       24.9982   -4.9624   -2.1285 H         1 UNK         0.1171 
    101 H101       25.6792   -6.0055   -4.2797 H         1 UNK         0.0786 
    102 H102       27.1307   -5.0173   -4.3252 H         1 UNK         0.0786 
    103 H103       26.9147   -6.2154   -3.0527 H         1 UNK         0.0786 
    104 H104       27.6516   -3.7883   -2.2555 H         1 UNK         0.2977 
    105 H105       26.2704    0.2584   -5.3481 H         1 UNK         0.3127 
    106 H106       28.5758    1.9881   -5.3282 H         1 UNK         0.0770 
    107 H107       25.7036    2.5974   -4.4264 H         1 UNK         0.0814 
    108 H108       27.1756    3.4072   -3.9072 H         1 UNK         0.0814 
    109 H109       26.8689    1.7414   -3.4405 H         1 UNK         0.0814 
    110 H110       25.4340    1.9890   -7.0254 H         1 UNK         0.2983 
    111 H111       25.7113    4.6162   -8.1986 H         1 UNK         0.0947 
    112 H112       23.8390    2.2965   -8.9336 H         1 UNK         0.0806 
    113 H113       23.6892    3.9572   -9.4845 H         1 UNK         0.0806 
    114 H114       23.4799    3.5830   -7.7820 H         1 UNK         0.0806 
    115 H115       26.2997    1.2763   -9.3097 H         1 UNK         0.3000 
    116 H116       27.3131    1.9588  -11.9170 H         1 UNK         0.0850 
    117 H117       28.1542   -0.3941  -11.8712 H         1 UNK         0.0810 
    118 H118       26.4897   -0.3229  -11.3110 H         1 UNK         0.0810 
    119 H119       27.8044   -0.5063  -10.1516 H         1 UNK         0.0810 
    120 H120       28.7049    1.9970   -8.7256 H         1 UNK         0.3040 
    121 H121       30.6341    2.4639   -7.7911 H         1 UNK         0.0766 
    122 H122       31.4723    3.8074  -10.4180 H         1 UNK         0.0812 
    123 H123       32.2104    4.0482   -8.8416 H         1 UNK         0.0812 
    124 H124       30.5615    4.5847   -9.1225 H         1 UNK         0.0812 
    125 H125       30.3107   -0.0775   -8.6449 H         1 UNK         0.3205 
    126 H126       32.5905   -0.9983  -10.2535 H         1 UNK         0.0754 
    127 H127       31.4396   -3.2052  -10.0840 H         1 UNK         0.0769 
    128 H128       30.3708   -1.9466  -10.6795 H         1 UNK         0.0769 
    129 H129       30.2355   -2.4984   -9.0153 H         1 UNK         0.0769 
    130 H130       33.7437    0.1777   -8.2359 H         1 UNK         0.2981 
    131 H131       34.3465   -1.6377   -6.0298 H         1 UNK         0.0541 
    132 H132       35.5938   -1.5901   -9.2201 H         1 UNK         0.3459 
    133 H133       37.1194   -2.3488   -8.8377 H         1 UNK         0.3459 
    134 H134       35.5596    1.0832   -6.6955 H         1 UNK         0.0612 
    135 H135       35.8309    0.1999   -5.2168 H         1 UNK         0.0612 
    136 H136       34.1785   -0.5928   -3.6896 H         1 UNK         0.0624 
    137 H137       33.7401    0.8993   -2.8988 H         1 UNK         0.0624 
@<TRIPOS>BOND
     1    1    2 1    
     2    1   72 1    
     3    1   73 1    
     4    1   74 1    
     5    2    3 2    
     6    2    4 am   BACKBONE|DICT|INTERRES
     7    4    5 1    
     8    4   75 1    
     9    5    6 1    
    10    5   35 1    
    11    5   76 1    
    12    6    7 1    
    13    6   77 1    
    14    6   78 1    
    15    7    8 1    
    16    8    9 1    
    17    8   79 1    
    18    8   80 1    
    19    9   10 ar   
    20    9   14 ar   
    21   10   11 ar   
    22   10   81 1    
    23   11   12 ar   
    24   11   71 1    
    25   12   13 ar   
    26   12   82 1    
    27   13   14 ar   
    28   13   15 1    
    29   14   83 1    
    30   15   16 1    
    31   15   84 1    
    32   15   85 1    
    33   16   17 1    
    34   17   18 1    
    35   17   86 1    
    36   17   87 1    
    37   18   19 1    
    38   18   37 1    
    39   18   88 1    
    40   19   20 am   BACKBONE|DICT|INTERRES
    41   19   89 1    
    42   20   21 2    
    43   20   22 1    
    44   22   23 1    
    45   22   24 1    
    46   22   90 1    
    47   23   91 1    
    48   23   92 1    
    49   23   93 1    
    50   24   25 am   BACKBONE|DICT|INTERRES
    51   24   94 1    
    52   25   26 2    
    53   25   27 1    
    54   27   28 1    
    55   27   29 1    
    56   27   95 1    
    57   28   96 1    
    58   28   97 1    
    59   28   98 1    
    60   29   30 am   BACKBONE|DICT|INTERRES
    61   29   99 1    
    62   30   31 2    
    63   30   32 1    
    64   32   33 1    
    65   32   34 1    
    66   32  100 1    
    67   33  101 1    
    68   33  102 1    
    69   33  103 1    
    70   34   35 am   BACKBONE|DICT|INTERRES
    71   34  104 1    
    72   35   36 2    
    73   37   38 2    
    74   37   39 am   BACKBONE|DICT|INTERRES
    75   39   40 1    
    76   39  105 1    
    77   40   41 1    
    78   40   42 1    
    79   40  106 1    
    80   41  107 1    
    81   41  108 1    
    82   41  109 1    
    83   42   43 2    
    84   42   44 am   BACKBONE|DICT|INTERRES
    85   44   45 1    
    86   44  110 1    
    87   45   46 1    
    88   45   47 1    
    89   45  111 1    
    90   46  112 1    
    91   46  113 1    
    92   46  114 1    
    93   47   48 2    
    94   47   49 am   BACKBONE|DICT|INTERRES
    95   49   50 1    
    96   49  115 1    
    97   50   51 1    
    98   50   52 1    
    99   50  116 1    
   100   51  117 1    
   101   51  118 1    
   102   51  119 1    
   103   52   53 2    
   104   52   54 am   BACKBONE|DICT|INTERRES
   105   54   55 1    
   106   54  120 1    
   107   55   56 1    
   108   55   57 1    
   109   55  121 1    
   110   56  122 1    
   111   56  123 1    
   112   56  124 1    
   113   57   58 2    
   114   57   59 am   BACKBONE|DICT|INTERRES
   115   59   60 1    
   116   59  125 1    
   117   60   61 1    
   118   60   62 1    
   119   60  126 1    
   120   61  127 1    
   121   61  128 1    
   122   61  129 1    
   123   62   63 2    
   124   62   64 am   BACKBONE|DICT|INTERRES
   125   64   65 1    
   126   64  130 1    
   127   65   66 1    
   128   65   69 1    
   129   65  131 1    
   130   66   67 am   BACKBONE|DICT|INTERRES
   131   66   68 2    
   132   67  132 1    
   133   67  133 1    
   134   69   70 1    
   135   69  134 1    
   136   69  135 1    
   137   70   71 1    
   138   71  136 1    
   139   71  137 1    
@<TRIPOS>SUBSTRUCTURE
     1 UNK         1 GROUP             0       ****    0 ROOT    
