@<TRIPOS>MOLECULE
3R137
137   139    1
SMALL
USER_CHARGES


@<TRIPOS>ATOM
      1 CA         30.5432    1.1307   -2.2184 C.3       0 UNK        -0.2020 
      2 C          29.7459   -0.1630   -2.2824 C.2       0 UNK         0.4855 
      3 O          29.2321   -0.5114   -3.3421 O.2       0 UNK        -0.5197 
      4 N          29.6378   -0.8783   -1.1557 N.am      1 UNK        -0.4892 
      5 CA         28.8451   -2.1047   -1.0357 C.3       1 UNK         0.0835 
      6 C6         29.3036   -2.9449    0.1830 C.3       12 UNK        -0.0855 
      7 S7         28.7556   -4.6839    0.0841 S.3       12 UNK        -0.2931 
      8 C8         30.2436   -5.5123   -0.5641 C.3       12 UNK         0.0378 
      9 C9         30.6060   -5.0278   -1.9613 C.ar      12 UNK        -0.0802 
     10 C10        31.7768   -4.2939   -2.1740 C.ar      12 UNK        -0.0944 
     11 C11        32.1217   -3.8593   -3.4577 C.ar      12 UNK        -0.0787 
     12 C12        31.2685   -4.1417   -4.5305 C.ar      12 UNK        -0.0862 
     13 C13        30.0887   -4.8675   -4.3291 C.ar      12 UNK        -0.0733 
     14 C14        29.7733   -5.3215   -3.0447 C.ar      12 UNK        -0.0832 
     15 C15        29.1641   -5.1846   -5.4990 C.3       12 UNK         0.0240 
     16 S16        27.4928   -4.4920   -5.2697 S.3       12 UNK        -0.2522 
     17 C17        27.8235   -2.7030   -5.3694 C.3       12 UNK        -0.0967 
     18 CA         26.9918   -2.0017   -6.4711 C.3       5 UNK         0.0660 
     19 N          25.5486   -2.1084   -6.2527 N.am      5 UNK        -0.4015 
     20 C          24.6200   -1.9957   -7.2124 C.2       4 UNK         0.4946 
     21 O          24.8826   -1.8693   -8.4087 O.2       4 UNK        -0.5353 
     22 CA         23.1443   -2.0216   -6.7720 C.3       4 UNK         0.0277 
     23 CB         22.5921   -3.4550   -6.8350 C.3       4 UNK        -0.1981 
     24 N          22.9304   -1.4798   -5.4277 N.am      4 UNK        -0.4209 
     25 C          23.0619   -0.1868   -5.0966 C.2       3 UNK         0.4942 
     26 O          23.3089    0.7068   -5.9064 O.2       3 UNK        -0.5208 
     27 CA         22.9406    0.1597   -3.5991 C.3       3 UNK         0.0250 
     28 CB         21.4797    0.4703   -3.2360 C.3       3 UNK        -0.1990 
     29 N          23.4625   -0.8754   -2.6931 N.am      3 UNK        -0.4232 
     30 C          24.7154   -1.3513   -2.7216 C.2       2 UNK         0.4993 
     31 O          25.5532   -0.9924   -3.5497 O.2       2 UNK        -0.5286 
     32 CA         25.0658   -2.4620   -1.7176 C.3       2 UNK         0.0209 
     33 CB         24.4592   -3.8006   -2.1726 C.3       2 UNK        -0.1931 
     34 N          26.5146   -2.6350   -1.5857 N.am      2 UNK        -0.4546 
     35 C          27.3383   -1.7722   -0.9770 C.2       1 UNK         0.5154 
     36 O          26.9521   -0.7740   -0.3610 O.2       1 UNK        -0.5181 
     37 C          27.3846   -0.5205   -6.5816 C.2       5 UNK         0.5014 
     38 O          28.0499   -0.1444   -7.5456 O.2       5 UNK        -0.5248 
     39 N          26.9357    0.2968   -5.6183 N.am      6 UNK        -0.4434 
     40 CA         27.2560    1.7215   -5.4721 C.3       6 UNK         0.0363 
     41 CB         26.6298    2.2350   -4.1657 C.3       6 UNK        -0.1936 
     42 C          26.8419    2.6134   -6.6592 C.2       6 UNK         0.5081 
     43 O          27.3305    3.7386   -6.7665 O.2       6 UNK        -0.5248 
     44 N          25.9572    2.1079   -7.5282 N.am      7 UNK        -0.4718 
     45 CA         25.5828    2.7213   -8.8016 C.3       7 UNK         0.0273 
     46 CB         24.3365    2.0039   -9.3452 C.3       7 UNK        -0.1935 
     47 C          26.7133    2.7077   -9.8516 C.2       7 UNK         0.5018 
     48 O          26.6896    3.5465  -10.7540 O.2       7 UNK        -0.5186 
     49 N          27.6642    1.7683   -9.7407 N.am      8 UNK        -0.4240 
     50 CA         28.8236    1.6541  -10.6278 C.3       8 UNK         0.0235 
     51 CB         29.2128    0.1712  -10.7544 C.3       8 UNK        -0.2000 
     52 C          30.0083    2.4711  -10.0893 C.2       8 UNK         0.4941 
     53 O          30.1074    2.6968   -8.8822 O.2       8 UNK        -0.5273 
     54 N          30.9103    2.8732  -10.9952 N.am      9 UNK        -0.4262 
     55 CA         32.1488    3.5843  -10.6580 C.3       9 UNK         0.0264 
     56 CB         32.7003    4.2818  -11.9123 C.3       9 UNK        -0.1955 
     57 C          33.2151    2.6618  -10.0406 C.2       9 UNK         0.5031 
     58 O          33.9524    3.0932   -9.1522 O.2       9 UNK        -0.5390 
     59 N          33.2785    1.4091  -10.5122 N.am      10 UNK        -0.4204 
     60 CA         34.1794    0.3670  -10.0185 C.3       10 UNK         0.0237 
     61 CB         34.4206   -0.6588  -11.1421 C.3       10 UNK        -0.1985 
     62 C          33.5885   -0.2749   -8.7528 C.2       10 UNK         0.4970 
     63 O          33.0116   -1.3618   -8.8301 O.2       10 UNK        -0.4914 
     64 N          33.6953    0.4437   -7.6276 N.am      11 UNK        -0.4285 
     65 CA         33.0630    0.1571   -6.3285 C.3       11 UNK         0.1007 
     66 C          31.5270    0.3767   -6.3671 C.2       11 UNK         0.5703 
     67 N          30.8080   -0.3716   -7.1912 N.am      11 UNK        -0.7361 
     68 O          31.0075    1.2451   -5.6726 O.2       11 UNK        -0.4986 
     69 C69        33.4593   -1.2284   -5.7439 C.3       12 UNK        -0.0947 
     70 S70        33.2149   -1.3419   -3.9406 S.3       12 UNK        -0.2240 
     71 C71        33.4403   -3.1290   -3.6819 C.3       12 UNK         0.0194 
     72 H72        30.8680    1.3636   -1.2047 H         1 UNK         0.0906 
     73 H73        31.4265    1.0543   -2.8518 H         1 UNK         0.0906 
     74 H74        29.9374    1.9601   -2.5827 H         1 UNK         0.0906 
     75 H75        30.0422   -0.5271   -0.2997 H         1 UNK         0.3140 
     76 H76        29.0262   -2.6865   -1.9427 H         1 UNK         0.1085 
     77 H77        28.9413   -2.5111    1.1173 H         1 UNK         0.0836 
     78 H78        30.3923   -2.9349    0.2577 H         1 UNK         0.0836 
     79 H79        30.0635   -6.5879   -0.5949 H         1 UNK         0.0731 
     80 H80        31.0715   -5.3620    0.1307 H         1 UNK         0.0731 
     81 H81        32.4300   -4.0737   -1.3407 H         1 UNK         0.1312 
     82 H82        31.5294   -3.8042   -5.5237 H         1 UNK         0.1406 
     83 H83        28.8673   -5.8908   -2.8849 H         1 UNK         0.1631 
     84 H84        29.0842   -6.2676   -5.6020 H         1 UNK         0.0717 
     85 H85        29.5777   -4.8163   -6.4392 H         1 UNK         0.0717 
     86 H86        27.6182   -2.2739   -4.3888 H         1 UNK         0.0934 
     87 H87        28.8892   -2.5380   -5.5420 H         1 UNK         0.0934 
     88 H88        27.2346   -2.4774   -7.4241 H         1 UNK         0.0739 
     89 H89        25.2560   -2.1304   -5.2846 H         1 UNK         0.3093 
     90 H90        22.5811   -1.4063   -7.4773 H         1 UNK         0.0818 
     91 H91        22.7132   -3.8750   -7.8346 H         1 UNK         0.0819 
     92 H92        23.1068   -4.1188   -6.1390 H         1 UNK         0.0819 
     93 H93        21.5274   -3.4817   -6.6019 H         1 UNK         0.0819 
     94 H94        22.7093   -2.1401   -4.6969 H         1 UNK         0.3041 
     95 H95        23.5301    1.0625   -3.4294 H         1 UNK         0.0784 
     96 H96        21.0753    1.2519   -3.8811 H         1 UNK         0.0793 
     97 H97        20.8397   -0.4061   -3.3458 H         1 UNK         0.0793 
     98 H98        21.3920    0.8250   -2.2089 H         1 UNK         0.0793 
     99 H99        22.8217   -1.2286   -1.9964 H         1 UNK         0.3024 
    100 H100       24.6571   -2.1900   -0.7417 H         1 UNK         0.1171 
    101 H101       24.6906   -4.5992   -1.4672 H         1 UNK         0.0786 
    102 H102       23.3724   -3.7418   -2.2424 H         1 UNK         0.0786 
    103 H103       24.8342   -4.1022   -3.1521 H         1 UNK         0.0786 
    104 H104       26.9160   -3.4283   -2.0637 H         1 UNK         0.2977 
    105 H105       26.4143   -0.1226   -4.8480 H         1 UNK         0.3127 
    106 H106       28.3416    1.7942   -5.3826 H         1 UNK         0.0770 
    107 H107       25.5414    2.1832   -4.1991 H         1 UNK         0.0814 
    108 H108       26.9040    3.2745   -3.9818 H         1 UNK         0.0814 
    109 H109       26.9690    1.6524   -3.3084 H         1 UNK         0.0814 
    110 H110       25.5748    1.1935   -7.3309 H         1 UNK         0.2983 
    111 H111       25.3253    3.7655   -8.6118 H         1 UNK         0.0947 
    112 H112       24.5326    0.9484   -9.5403 H         1 UNK         0.0806 
    113 H113       24.0030    2.4537  -10.2814 H         1 UNK         0.0806 
    114 H114       23.5054    2.0647   -8.6418 H         1 UNK         0.0806 
    115 H115       27.6665    1.1597   -8.9255 H         1 UNK         0.3000 
    116 H116       28.5598    2.0268  -11.6201 H         1 UNK         0.0850 
    117 H117       30.0277    0.0363  -11.4664 H         1 UNK         0.0810 
    118 H118       28.3741   -0.4305  -11.1050 H         1 UNK         0.0810 
    119 H119       29.5437   -0.2424   -9.8013 H         1 UNK         0.0810 
    120 H120       30.7528    2.6656  -11.9715 H         1 UNK         0.3040 
    121 H121       31.9137    4.3550   -9.9203 H         1 UNK         0.0766 
    122 H122       31.9832    4.9968  -12.3162 H         1 UNK         0.0812 
    123 H123       32.9452    3.5689  -12.7007 H         1 UNK         0.0812 
    124 H124       33.6111    4.8358  -11.6804 H         1 UNK         0.0812 
    125 H125       32.6131    1.1313  -11.2179 H         1 UNK         0.3205 
    126 H126       35.1435    0.8098   -9.7581 H         1 UNK         0.0754 
    127 H127       35.0815   -1.4580  -10.8038 H         1 UNK         0.0769 
    128 H128       34.8932   -0.1936  -12.0074 H         1 UNK         0.0769 
    129 H129       33.4923   -1.1235  -11.4774 H         1 UNK         0.0769 
    130 H130       34.1117    1.3632   -7.7084 H         1 UNK         0.2981 
    131 H131       33.4696    0.9178   -5.6603 H         1 UNK         0.0541 
    132 H132       29.8075   -0.2121   -7.2764 H         1 UNK         0.3459 
    133 H133       31.2814   -1.0252   -7.8008 H         1 UNK         0.3459 
    134 H134       32.9117   -2.0332   -6.2355 H         1 UNK         0.0612 
    135 H135       34.5158   -1.4209   -5.9360 H         1 UNK         0.0612 
    136 H136       33.9658   -3.5716   -4.5293 H         1 UNK         0.0624 
    137 H137       34.0972   -3.2664   -2.8217 H         1 UNK         0.0624 
@<TRIPOS>BOND
     1    1    2 1    
     2    1   72 1    
     3    1   73 1    
     4    1   74 1    
     5    2    3 2    
     6    2    4 am   BACKBONE|DICT|INTERRES
     7    4    5 1    
     8    4   75 1    
     9    5    6 1    
    10    5   35 1    
    11    5   76 1    
    12    6    7 1    
    13    6   77 1    
    14    6   78 1    
    15    7    8 1    
    16    8    9 1    
    17    8   79 1    
    18    8   80 1    
    19    9   10 ar   
    20    9   14 ar   
    21   10   11 ar   
    22   10   81 1    
    23   11   12 ar   
    24   11   71 1    
    25   12   13 ar   
    26   12   82 1    
    27   13   14 ar   
    28   13   15 1    
    29   14   83 1    
    30   15   16 1    
    31   15   84 1    
    32   15   85 1    
    33   16   17 1    
    34   17   18 1    
    35   17   86 1    
    36   17   87 1    
    37   18   19 1    
    38   18   37 1    
    39   18   88 1    
    40   19   20 am   BACKBONE|DICT|INTERRES
    41   19   89 1    
    42   20   21 2    
    43   20   22 1    
    44   22   23 1    
    45   22   24 1    
    46   22   90 1    
    47   23   91 1    
    48   23   92 1    
    49   23   93 1    
    50   24   25 am   BACKBONE|DICT|INTERRES
    51   24   94 1    
    52   25   26 2    
    53   25   27 1    
    54   27   28 1    
    55   27   29 1    
    56   27   95 1    
    57   28   96 1    
    58   28   97 1    
    59   28   98 1    
    60   29   30 am   BACKBONE|DICT|INTERRES
    61   29   99 1    
    62   30   31 2    
    63   30   32 1    
    64   32   33 1    
    65   32   34 1    
    66   32  100 1    
    67   33  101 1    
    68   33  102 1    
    69   33  103 1    
    70   34   35 am   BACKBONE|DICT|INTERRES
    71   34  104 1    
    72   35   36 2    
    73   37   38 2    
    74   37   39 am   BACKBONE|DICT|INTERRES
    75   39   40 1    
    76   39  105 1    
    77   40   41 1    
    78   40   42 1    
    79   40  106 1    
    80   41  107 1    
    81   41  108 1    
    82   41  109 1    
    83   42   43 2    
    84   42   44 am   BACKBONE|DICT|INTERRES
    85   44   45 1    
    86   44  110 1    
    87   45   46 1    
    88   45   47 1    
    89   45  111 1    
    90   46  112 1    
    91   46  113 1    
    92   46  114 1    
    93   47   48 2    
    94   47   49 am   BACKBONE|DICT|INTERRES
    95   49   50 1    
    96   49  115 1    
    97   50   51 1    
    98   50   52 1    
    99   50  116 1    
   100   51  117 1    
   101   51  118 1    
   102   51  119 1    
   103   52   53 2    
   104   52   54 am   BACKBONE|DICT|INTERRES
   105   54   55 1    
   106   54  120 1    
   107   55   56 1    
   108   55   57 1    
   109   55  121 1    
   110   56  122 1    
   111   56  123 1    
   112   56  124 1    
   113   57   58 2    
   114   57   59 am   BACKBONE|DICT|INTERRES
   115   59   60 1    
   116   59  125 1    
   117   60   61 1    
   118   60   62 1    
   119   60  126 1    
   120   61  127 1    
   121   61  128 1    
   122   61  129 1    
   123   62   63 2    
   124   62   64 am   BACKBONE|DICT|INTERRES
   125   64   65 1    
   126   64  130 1    
   127   65   66 1    
   128   65   69 1    
   129   65  131 1    
   130   66   67 am   BACKBONE|DICT|INTERRES
   131   66   68 2    
   132   67  132 1    
   133   67  133 1    
   134   69   70 1    
   135   69  134 1    
   136   69  135 1    
   137   70   71 1    
   138   71  136 1    
   139   71  137 1    
@<TRIPOS>SUBSTRUCTURE
     1 UNK         1 GROUP             0       ****    0 ROOT    
