@<TRIPOS>MOLECULE
3R137
137   139    1
SMALL
USER_CHARGES


@<TRIPOS>ATOM
      1 CA         26.3513   -5.8099    3.3217 C.3       0 UNK        -0.2020 
      2 C          25.9693   -4.6470    2.4183 C.2       0 UNK         0.4855 
      3 O          24.8027   -4.2534    2.3861 O.2       0 UNK        -0.5197 
      4 N          26.9423   -4.0883    1.6876 N.am      1 UNK        -0.4892 
      5 CA         26.7423   -3.0067    0.7217 C.3       1 UNK         0.0835 
      6 C6         28.0589   -2.2227    0.4789 C.3       12 UNK        -0.0855 
      7 S7         27.8080   -0.6787   -0.4681 S.3       12 UNK        -0.2931 
      8 C8         29.5268   -0.2557   -0.9262 C.3       12 UNK         0.0378 
      9 C9         29.9850   -0.7776   -2.2905 C.ar      12 UNK        -0.0802 
     10 C10        30.9152   -0.0308   -3.0237 C.ar      12 UNK        -0.0944 
     11 C11        31.3654   -0.4727   -4.2718 C.ar      12 UNK        -0.0787 
     12 C12        30.8913   -1.6813   -4.7872 C.ar      12 UNK        -0.0862 
     13 C13        29.9785   -2.4479   -4.0611 C.ar      12 UNK        -0.0733 
     14 C14        29.5242   -1.9891   -2.8214 C.ar      12 UNK        -0.0832 
     15 C15        29.5037   -3.7904   -4.5908 C.3       12 UNK         0.0240 
     16 S16        27.8724   -3.6640   -5.3781 S.3       12 UNK        -0.2522 
     17 C17        28.2790   -3.2168   -7.1032 C.3       12 UNK        -0.0967 
     18 CA         27.5706   -1.9384   -7.6224 C.3       5 UNK         0.0660 
     19 N          26.1634   -1.8747   -7.2156 N.am      5 UNK        -0.4015 
     20 C          25.2368   -1.0708   -7.7548 C.2       4 UNK         0.4946 
     21 O          25.4467   -0.3360   -8.7183 O.2       4 UNK        -0.5353 
     22 CA         23.8683   -1.0303   -7.0515 C.3       4 UNK         0.0277 
     23 CB         22.9849   -2.2036   -7.5029 C.3       4 UNK        -0.1981 
     24 N          24.0117   -1.0501   -5.5929 N.am      4 UNK        -0.4209 
     25 C          24.5931   -0.0786   -4.8815 C.2       3 UNK         0.4942 
     26 O          24.9204    0.9953   -5.3864 O.2       3 UNK        -0.5208 
     27 CA         24.9453   -0.3359   -3.3977 C.3       3 UNK         0.0250 
     28 CB         24.6604    0.9081   -2.5347 C.3       3 UNK        -0.1990 
     29 N          24.3645   -1.5009   -2.7143 N.am      3 UNK        -0.4232 
     30 C          24.4098   -2.8003   -3.0449 C.2       2 UNK         0.4993 
     31 O          24.7681   -3.2297   -4.1411 O.2       2 UNK        -0.5286 
     32 CA         24.0146   -3.7717   -1.9163 C.3       2 UNK         0.0209 
     33 CB         24.0985   -5.2573   -2.3304 C.3       2 UNK        -0.1931 
     34 N          24.8060   -3.5025   -0.7047 N.am      2 UNK        -0.4546 
     35 C          26.1413   -3.5828   -0.5770 C.2       1 UNK         0.5154 
     36 O          26.8917   -4.0860   -1.4149 O.2       1 UNK        -0.5181 
     37 C          28.3501   -0.6488   -7.2863 C.2       5 UNK         0.5014 
     38 O          29.2639   -0.2906   -8.0327 O.2       5 UNK        -0.5248 
     39 N          27.9608    0.0496   -6.2093 N.am      6 UNK        -0.4434 
     40 CA         28.4927    1.3657   -5.8508 C.3       6 UNK         0.0363 
     41 CB         28.1099    1.7259   -4.4060 C.3       6 UNK        -0.1936 
     42 C          28.0104    2.4447   -6.8319 C.2       6 UNK         0.5081 
     43 O          28.8282    3.2235   -7.3186 O.2       6 UNK        -0.5248 
     44 N          26.7057    2.4400   -7.1452 N.am      7 UNK        -0.4718 
     45 CA         26.0735    3.3258   -8.1292 C.3       7 UNK         0.0273 
     46 CB         24.5487    3.1402   -8.0830 C.3       7 UNK        -0.1935 
     47 C          26.6067    3.1198   -9.5583 C.2       7 UNK         0.5018 
     48 O          26.8040    4.0997  -10.2773 O.2       7 UNK        -0.5186 
     49 N          26.8722    1.8584   -9.9265 N.am      8 UNK        -0.4240 
     50 CA         27.5316    1.4675  -11.1766 C.3       8 UNK         0.0235 
     51 CB         27.2971   -0.0328  -11.4181 C.3       8 UNK        -0.2000 
     52 C          29.0413    1.7807  -11.2119 C.2       8 UNK         0.4941 
     53 O          29.6388    1.6761  -12.2839 O.2       8 UNK        -0.5273 
     54 N          29.6283    2.1421  -10.0598 N.am      9 UNK        -0.4262 
     55 CA         31.0422    2.4524   -9.8308 C.3       9 UNK         0.0264 
     56 CB         31.4541    3.7383  -10.5788 C.3       9 UNK        -0.1955 
     57 C          31.9712    1.2590  -10.1184 C.2       9 UNK         0.5031 
     58 O          33.0325    1.4355  -10.7214 O.2       9 UNK        -0.5390 
     59 N          31.5795    0.0638   -9.6485 N.am      10 UNK        -0.4204 
     60 CA         32.3325   -1.1896   -9.8043 C.3       10 UNK         0.0237 
     61 CB         31.4928   -2.3552   -9.2595 C.3       10 UNK        -0.1985 
     62 C          33.7230   -1.1777   -9.1388 C.2       10 UNK         0.4970 
     63 O          34.5949   -1.9456   -9.5468 O.2       10 UNK        -0.4914 
     64 N          33.9038   -0.2987   -8.1463 N.am      11 UNK        -0.4285 
     65 CA         35.1833    0.0005   -7.4900 C.3       11 UNK         0.1007 
     66 C          36.1728    0.8243   -8.3678 C.2       11 UNK         0.5703 
     67 N          35.7689    1.3783   -9.5067 N.am      11 UNK        -0.7361 
     68 O          37.3405    0.9566   -8.0087 O.2       11 UNK        -0.4986 
     69 C69        34.9615    0.6833   -6.1137 C.3       12 UNK        -0.0947 
     70 S70        34.0332   -0.3692   -4.9492 S.3       12 UNK        -0.2240 
     71 C71        32.3658    0.3476   -5.0689 C.3       12 UNK         0.0194 
     72 H72        25.7914   -6.7018    3.0414 H         1 UNK         0.0906 
     73 H73        27.4141   -6.0434    3.2604 H         1 UNK         0.0906 
     74 H74        26.1161   -5.5720    4.3588 H         1 UNK         0.0906 
     75 H75        27.8762   -4.4722    1.7288 H         1 UNK         0.3140 
     76 H76        26.0247   -2.3006    1.1469 H         1 UNK         0.1085 
     77 H77        28.4956   -1.9409    1.4386 H         1 UNK         0.0836 
     78 H78        28.8056   -2.8495   -0.0112 H         1 UNK         0.0836 
     79 H79        29.6020    0.8328   -0.9146 H         1 UNK         0.0731 
     80 H80        30.2130   -0.6148   -0.1581 H         1 UNK         0.0731 
     81 H81        31.2889    0.9019   -2.6234 H         1 UNK         0.1312 
     82 H82        31.2479   -2.0302   -5.7461 H         1 UNK         0.1406 
     83 H83        28.8104   -2.5887   -2.2767 H         1 UNK         0.1631 
     84 H84        29.4301   -4.4962   -3.7619 H         1 UNK         0.0717 
     85 H85        30.2278   -4.2187   -5.2855 H         1 UNK         0.0717 
     86 H86        29.3596   -3.1493   -7.2325 H         1 UNK         0.0934 
     87 H87        27.9740   -4.0616   -7.7229 H         1 UNK         0.0934 
     88 H88        27.5749   -2.0034   -8.7121 H         1 UNK         0.0739 
     89 H89        25.9136   -2.4491   -6.4202 H         1 UNK         0.3093 
     90 H90        23.3742   -0.0981   -7.3334 H         1 UNK         0.0818 
     91 H91        21.9891   -2.1399   -7.0640 H         1 UNK         0.0819 
     92 H92        22.8614   -2.2036   -8.5868 H         1 UNK         0.0819 
     93 H93        23.4137   -3.1666   -7.2220 H         1 UNK         0.0819 
     94 H94        23.8962   -1.9467   -5.1269 H         1 UNK         0.3041 
     95 H95        26.0251   -0.4970   -3.3859 H         1 UNK         0.0784 
     96 H96        25.1279    1.8038   -2.9446 H         1 UNK         0.0793 
     97 H97        23.5906    1.1070   -2.4622 H         1 UNK         0.0793 
     98 H98        25.0507    0.7880   -1.5238 H         1 UNK         0.0793 
     99 H99        24.0071   -1.2959   -1.7928 H         1 UNK         0.3024 
    100 H100       22.9723   -3.5595   -1.6715 H         1 UNK         0.1171 
    101 H101       23.4175   -5.4673   -3.1560 H         1 UNK         0.0786 
    102 H102       23.8232   -5.9151   -1.5062 H         1 UNK         0.0786 
    103 H103       25.0992   -5.5356   -2.6624 H         1 UNK         0.0786 
    104 H104       24.2847   -3.1495    0.0875 H         1 UNK         0.2977 
    105 H105       27.1983   -0.3042   -5.6538 H         1 UNK         0.3127 
    106 H106       29.5816    1.3129   -5.9084 H         1 UNK         0.0770 
    107 H107       27.0630    2.0111   -4.3164 H         1 UNK         0.0814 
    108 H108       28.7016    2.5710   -4.0530 H         1 UNK         0.0814 
    109 H109       28.2863    0.8972   -3.7226 H         1 UNK         0.0814 
    110 H110       26.0898    1.7982   -6.6508 H         1 UNK         0.2983 
    111 H111       26.3017    4.3538   -7.8399 H         1 UNK         0.0947 
    112 H112       24.0513    3.8177   -8.7783 H         1 UNK         0.0806 
    113 H113       24.1543    3.3479   -7.0880 H         1 UNK         0.0806 
    114 H114       24.2571    2.1244   -8.3512 H         1 UNK         0.0806 
    115 H115       26.5794    1.1037   -9.3102 H         1 UNK         0.3000 
    116 H116       27.0661    2.0226  -11.9937 H         1 UNK         0.0850 
    117 H117       27.7120   -0.3453  -12.3773 H         1 UNK         0.0810 
    118 H118       26.2338   -0.2732  -11.4318 H         1 UNK         0.0810 
    119 H119       27.7699   -0.6397  -10.6461 H         1 UNK         0.0810 
    120 H120       29.0451    2.2014   -9.2335 H         1 UNK         0.3040 
    121 H121       31.1362    2.6537   -8.7628 H         1 UNK         0.0766 
    122 H122       32.4655    4.0417  -10.3058 H         1 UNK         0.0812 
    123 H123       30.7904    4.5677  -10.3343 H         1 UNK         0.0812 
    124 H124       31.4377    3.6019  -11.6605 H         1 UNK         0.0812 
    125 H125       30.6974    0.0026   -9.1386 H         1 UNK         0.3205 
    126 H126       32.4860   -1.3465  -10.8738 H         1 UNK         0.0754 
    127 H127       31.9914   -3.3105   -9.4292 H         1 UNK         0.0769 
    128 H128       30.5179   -2.4063   -9.7450 H         1 UNK         0.0769 
    129 H129       31.3311   -2.2573   -8.1863 H         1 UNK         0.0769 
    130 H130       33.1285    0.2910   -7.8914 H         1 UNK         0.2981 
    131 H131       35.6815   -0.9531   -7.3053 H         1 UNK         0.0541 
    132 H132       34.8133    1.2846   -9.8348 H         1 UNK         0.3459 
    133 H133       36.4322    1.9012  -10.0555 H         1 UNK         0.3459 
    134 H134       34.4524    1.6414   -6.2331 H         1 UNK         0.0612 
    135 H135       35.9196    0.9076   -5.6412 H         1 UNK         0.0612 
    136 H136       32.3887    1.3792   -4.7142 H         1 UNK         0.0624 
    137 H137       32.0499    0.3836   -6.1119 H         1 UNK         0.0624 
@<TRIPOS>BOND
     1    1    2 1    
     2    1   72 1    
     3    1   73 1    
     4    1   74 1    
     5    2    3 2    
     6    2    4 am   BACKBONE|DICT|INTERRES
     7    4    5 1    
     8    4   75 1    
     9    5    6 1    
    10    5   35 1    
    11    5   76 1    
    12    6    7 1    
    13    6   77 1    
    14    6   78 1    
    15    7    8 1    
    16    8    9 1    
    17    8   79 1    
    18    8   80 1    
    19    9   10 ar   
    20    9   14 ar   
    21   10   11 ar   
    22   10   81 1    
    23   11   12 ar   
    24   11   71 1    
    25   12   13 ar   
    26   12   82 1    
    27   13   14 ar   
    28   13   15 1    
    29   14   83 1    
    30   15   16 1    
    31   15   84 1    
    32   15   85 1    
    33   16   17 1    
    34   17   18 1    
    35   17   86 1    
    36   17   87 1    
    37   18   19 1    
    38   18   37 1    
    39   18   88 1    
    40   19   20 am   BACKBONE|DICT|INTERRES
    41   19   89 1    
    42   20   21 2    
    43   20   22 1    
    44   22   23 1    
    45   22   24 1    
    46   22   90 1    
    47   23   91 1    
    48   23   92 1    
    49   23   93 1    
    50   24   25 am   BACKBONE|DICT|INTERRES
    51   24   94 1    
    52   25   26 2    
    53   25   27 1    
    54   27   28 1    
    55   27   29 1    
    56   27   95 1    
    57   28   96 1    
    58   28   97 1    
    59   28   98 1    
    60   29   30 am   BACKBONE|DICT|INTERRES
    61   29   99 1    
    62   30   31 2    
    63   30   32 1    
    64   32   33 1    
    65   32   34 1    
    66   32  100 1    
    67   33  101 1    
    68   33  102 1    
    69   33  103 1    
    70   34   35 am   BACKBONE|DICT|INTERRES
    71   34  104 1    
    72   35   36 2    
    73   37   38 2    
    74   37   39 am   BACKBONE|DICT|INTERRES
    75   39   40 1    
    76   39  105 1    
    77   40   41 1    
    78   40   42 1    
    79   40  106 1    
    80   41  107 1    
    81   41  108 1    
    82   41  109 1    
    83   42   43 2    
    84   42   44 am   BACKBONE|DICT|INTERRES
    85   44   45 1    
    86   44  110 1    
    87   45   46 1    
    88   45   47 1    
    89   45  111 1    
    90   46  112 1    
    91   46  113 1    
    92   46  114 1    
    93   47   48 2    
    94   47   49 am   BACKBONE|DICT|INTERRES
    95   49   50 1    
    96   49  115 1    
    97   50   51 1    
    98   50   52 1    
    99   50  116 1    
   100   51  117 1    
   101   51  118 1    
   102   51  119 1    
   103   52   53 2    
   104   52   54 am   BACKBONE|DICT|INTERRES
   105   54   55 1    
   106   54  120 1    
   107   55   56 1    
   108   55   57 1    
   109   55  121 1    
   110   56  122 1    
   111   56  123 1    
   112   56  124 1    
   113   57   58 2    
   114   57   59 am   BACKBONE|DICT|INTERRES
   115   59   60 1    
   116   59  125 1    
   117   60   61 1    
   118   60   62 1    
   119   60  126 1    
   120   61  127 1    
   121   61  128 1    
   122   61  129 1    
   123   62   63 2    
   124   62   64 am   BACKBONE|DICT|INTERRES
   125   64   65 1    
   126   64  130 1    
   127   65   66 1    
   128   65   69 1    
   129   65  131 1    
   130   66   67 am   BACKBONE|DICT|INTERRES
   131   66   68 2    
   132   67  132 1    
   133   67  133 1    
   134   69   70 1    
   135   69  134 1    
   136   69  135 1    
   137   70   71 1    
   138   71  136 1    
   139   71  137 1    
@<TRIPOS>SUBSTRUCTURE
     1 UNK         1 GROUP             0       ****    0 ROOT    
