@<TRIPOS>MOLECULE
3R137
137   139    1
SMALL
USER_CHARGES


@<TRIPOS>ATOM
      1 CA         22.6458   -6.0840   -1.9448 C.3       0 UNK        -0.2020 
      2 C          23.9118   -5.4085   -1.4414 C.2       0 UNK         0.4855 
      3 O          23.9442   -4.9327   -0.3060 O.2       0 UNK        -0.5197 
      4 N          24.9547   -5.3445   -2.2797 N.am      1 UNK        -0.4892 
      5 CA         26.2593   -4.7366   -1.9839 C.3       1 UNK         0.0835 
      6 C6         27.3669   -5.3786   -2.8603 C.3       12 UNK        -0.0855 
      7 S7         29.0374   -5.2246   -2.1376 S.3       12 UNK        -0.2931 
      8 C8         30.0401   -4.6309   -3.5521 C.3       12 UNK         0.0378 
      9 C9         30.6280   -3.2222   -3.4209 C.ar      12 UNK        -0.0802 
     10 C10        31.5120   -2.7826   -4.4138 C.ar      12 UNK        -0.0944 
     11 C11        32.1143   -1.5236   -4.3326 C.ar      12 UNK        -0.0787 
     12 C12        31.8314   -0.6953   -3.2459 C.ar      12 UNK        -0.0862 
     13 C13        30.9367   -1.1056   -2.2564 C.ar      12 UNK        -0.0733 
     14 C14        30.3363   -2.3655   -2.3493 C.ar      12 UNK        -0.0832 
     15 C15        30.6178   -0.1806   -1.0897 C.3       12 UNK         0.0240 
     16 S16        29.7634    1.3353   -1.6310 S.3       12 UNK        -0.2522 
     17 C17        28.2870    0.6426   -2.4419 C.3       12 UNK        -0.0967 
     18 CA         28.3595    0.7426   -3.9896 C.3       5 UNK         0.0660 
     19 N          27.6583   -0.3689   -4.6358 N.am      5 UNK        -0.4015 
     20 C          27.5834   -0.5936   -5.9560 C.2       4 UNK         0.4946 
     21 O          28.1586    0.0732   -6.8141 O.2       4 UNK        -0.5353 
     22 CA         26.6574   -1.7322   -6.4029 C.3       4 UNK         0.0277 
     23 CB         27.3869   -3.0810   -6.3186 C.3       4 UNK        -0.1981 
     24 N          25.4248   -1.7716   -5.6119 N.am      4 UNK        -0.4209 
     25 C          24.4721   -0.8273   -5.6534 C.2       3 UNK         0.4942 
     26 O          24.5015    0.1452   -6.4075 O.2       3 UNK        -0.5208 
     27 CA         23.3182   -0.9667   -4.6461 C.3       3 UNK         0.0250 
     28 CB         22.2897   -2.0005   -5.1318 C.3       3 UNK        -0.1990 
     29 N          23.7834   -1.3261   -3.3040 N.am      3 UNK        -0.4232 
     30 C          24.5614   -0.5479   -2.5377 C.2       2 UNK         0.4993 
     31 O          24.9277    0.5812   -2.8603 O.2       2 UNK        -0.5286 
     32 CA         25.0557   -1.1445   -1.2090 C.3       2 UNK         0.0209 
     33 CB         24.0499   -0.8560   -0.0840 C.3       2 UNK        -0.1931 
     34 N          25.3224   -2.5856   -1.2664 N.am      2 UNK        -0.4546 
     35 C          26.1844   -3.1952   -2.0921 C.2       1 UNK         0.5154 
     36 O          26.8436   -2.5894   -2.9387 O.2       1 UNK        -0.5181 
     37 C          27.8539    2.1120   -4.4884 C.2       5 UNK         0.5014 
     38 O          28.6579    2.9383   -4.9212 O.2       5 UNK        -0.5248 
     39 N          26.5275    2.3107   -4.4440 N.am      6 UNK        -0.4434 
     40 CA         25.8408    3.5221   -4.8979 C.3       6 UNK         0.0363 
     41 CB         24.3580    3.4484   -4.5005 C.3       6 UNK        -0.1936 
     42 C          25.9830    3.7727   -6.4080 C.2       6 UNK         0.5081 
     43 O          26.1751    4.9190   -6.8144 O.2       6 UNK        -0.5248 
     44 N          25.8990    2.7032   -7.2106 N.am      7 UNK        -0.4718 
     45 CA         26.0828    2.7469   -8.6641 C.3       7 UNK         0.0273 
     46 CB         25.5011    1.4614   -9.2747 C.3       7 UNK        -0.1935 
     47 C          27.5505    2.9188   -9.0990 C.2       7 UNK         0.5018 
     48 O          27.7876    3.3094  -10.2427 O.2       7 UNK        -0.5186 
     49 N          28.4938    2.5853   -8.2045 N.am      8 UNK        -0.4240 
     50 CA         29.9350    2.4226   -8.4344 C.3       8 UNK         0.0235 
     51 CB         30.6050    3.7685   -8.7818 C.3       8 UNK        -0.2000 
     52 C          30.2288    1.3110   -9.4635 C.2       8 UNK         0.4941 
     53 O          31.1342    1.4528  -10.2889 O.2       8 UNK        -0.5273 
     54 N          29.4347    0.2319   -9.4076 N.am      9 UNK        -0.4262 
     55 CA         29.4156   -0.8725  -10.3666 C.3       9 UNK         0.0264 
     56 CB         28.1909   -1.7615  -10.0931 C.3       9 UNK        -0.1955 
     57 C          30.7249   -1.6756  -10.3342 C.2       9 UNK         0.5031 
     58 O          30.9053   -2.5162   -9.4518 O.2       9 UNK        -0.5390 
     59 N          31.6150   -1.3677  -11.2884 N.am      10 UNK        -0.4204 
     60 CA         32.9798   -1.8885  -11.4402 C.3       10 UNK         0.0237 
     61 CB         32.9690   -3.4049  -11.7313 C.3       10 UNK        -0.1985 
     62 C          33.9195   -1.5098  -10.2757 C.2       10 UNK         0.4970 
     63 O          34.9189   -2.1974  -10.0578 O.2       10 UNK        -0.4914 
     64 N          33.6036   -0.4199   -9.5627 N.am      11 UNK        -0.4285 
     65 CA         34.4021    0.0964   -8.4396 C.3       11 UNK         0.1007 
     66 C          35.6400    0.9357   -8.8700 C.2       11 UNK         0.5703 
     67 N          35.8002    1.2897  -10.1397 N.am      11 UNK        -0.7361 
     68 O          36.4802    1.2618   -8.0351 O.2       11 UNK        -0.4986 
     69 C69        33.5307    0.8704   -7.4173 C.3       12 UNK        -0.0947 
     70 S70        32.1851   -0.1341   -6.7065 S.3       12 UNK        -0.2240 
     71 C71        33.0731   -1.0468   -5.4106 C.3       12 UNK         0.0194 
     72 H72        22.7669   -6.4793   -2.9541 H         1 UNK         0.0906 
     73 H73        22.3762   -6.9110   -1.2869 H         1 UNK         0.0906 
     74 H74        21.8193   -5.3725   -1.9545 H         1 UNK         0.0906 
     75 H75        24.8592   -5.7343   -3.2071 H         1 UNK         0.3140 
     76 H76        26.4977   -4.9618   -0.9416 H         1 UNK         0.1085 
     77 H77        27.3322   -4.9972   -3.8797 H         1 UNK         0.0836 
     78 H78        27.1839   -6.4505   -2.9523 H         1 UNK         0.0836 
     79 H79        29.4693   -4.6915   -4.4783 H         1 UNK         0.0731 
     80 H80        30.8682   -5.3311   -3.6718 H         1 UNK         0.0731 
     81 H81        31.7378   -3.4253   -5.2540 H         1 UNK         0.1312 
     82 H82        32.2911    0.2815   -3.1797 H         1 UNK         0.1406 
     83 H83        29.6433   -2.6704   -1.5790 H         1 UNK         0.1631 
     84 H84        31.5456    0.0960   -0.5873 H         1 UNK         0.0717 
     85 H85        30.0043   -0.6880   -0.3437 H         1 UNK         0.0717 
     86 H86        28.1869   -0.3978   -2.1320 H         1 UNK         0.0934 
     87 H87        27.4053    1.1438   -2.0391 H         1 UNK         0.0934 
     88 H88        29.4019    0.6464   -4.3016 H         1 UNK         0.0739 
     89 H89        27.2042   -1.0357   -4.0181 H         1 UNK         0.3093 
     90 H90        26.3820   -1.5540   -7.4444 H         1 UNK         0.0818 
     91 H91        27.7235   -3.2858   -5.3045 H         1 UNK         0.0819 
     92 H92        26.7508   -3.9047   -6.6424 H         1 UNK         0.0819 
     93 H93        28.2765   -3.0859   -6.9493 H         1 UNK         0.0819 
     94 H94        25.3505   -2.5052   -4.9226 H         1 UNK         0.3041 
     95 H95        22.8215    0.0038   -4.5784 H         1 UNK         0.0784 
     96 H96        21.9217   -1.7447   -6.1266 H         1 UNK         0.0793 
     97 H97        22.7149   -3.0033   -5.1896 H         1 UNK         0.0793 
     98 H98        21.4247   -2.0401   -4.4694 H         1 UNK         0.0793 
     99 H99        23.5261   -2.2369   -2.9535 H         1 UNK         0.3024 
    100 H100       25.9951   -0.6483   -0.9601 H         1 UNK         0.1171 
    101 H101       23.8462    0.2131   -0.0066 H         1 UNK         0.0786 
    102 H102       24.4328   -1.1818    0.8833 H         1 UNK         0.0786 
    103 H103       23.0971   -1.3590   -0.2543 H         1 UNK         0.0786 
    104 H104       24.7837   -3.1824   -0.6447 H         1 UNK         0.2977 
    105 H105       25.9409    1.5917   -4.0221 H         1 UNK         0.3127 
    106 H106       26.2919    4.3704   -4.3789 H         1 UNK         0.0770 
    107 H107       23.8608    2.5924   -4.9585 H         1 UNK         0.0814 
    108 H108       23.8231    4.3456   -4.8147 H         1 UNK         0.0814 
    109 H109       24.2414    3.3621   -3.4201 H         1 UNK         0.0814 
    110 H110       25.6733    1.7999   -6.8044 H         1 UNK         0.2983 
    111 H111       25.5236    3.5982   -9.0587 H         1 UNK         0.0947 
    112 H112       25.6065    1.4575  -10.3604 H         1 UNK         0.0806 
    113 H113       24.4388    1.3618   -9.0512 H         1 UNK         0.0806 
    114 H114       26.0064    0.5736   -8.8931 H         1 UNK         0.0806 
    115 H115       28.1696    2.2310   -7.3118 H         1 UNK         0.3000 
    116 H116       30.3497    2.0817   -7.4851 H         1 UNK         0.0850 
    117 H117       31.6897    3.6651   -8.8207 H         1 UNK         0.0810 
    118 H118       30.3782    4.5274   -8.0331 H         1 UNK         0.0810 
    119 H119       30.2814    4.1449   -9.7525 H         1 UNK         0.0810 
    120 H120       28.8098    0.1582   -8.6079 H         1 UNK         0.3040 
    121 H121       29.2931   -0.4436  -11.3635 H         1 UNK         0.0766 
    122 H122       27.2615   -1.2010  -10.1916 H         1 UNK         0.0812 
    123 H123       28.2220   -2.1886   -9.0920 H         1 UNK         0.0812 
    124 H124       28.1460   -2.5913  -10.7996 H         1 UNK         0.0812 
    125 H125       31.3695   -0.6182  -11.9222 H         1 UNK         0.3205 
    126 H126       33.3904   -1.3930  -12.3208 H         1 UNK         0.0754 
    127 H127       33.9637   -3.7590  -12.0045 H         1 UNK         0.0769 
    128 H128       32.3031   -3.6454  -12.5600 H         1 UNK         0.0769 
    129 H129       32.6477   -3.9819  -10.8639 H         1 UNK         0.0769 
    130 H130       32.7741    0.1089   -9.8051 H         1 UNK         0.2981 
    131 H131       34.8152   -0.7633   -7.9090 H         1 UNK         0.0541 
    132 H132       36.6103    1.8279  -10.4035 H         1 UNK         0.3459 
    133 H133       35.1168    1.0324  -10.8328 H         1 UNK         0.3459 
    134 H134       34.1384    1.2583   -6.5982 H         1 UNK         0.0612 
    135 H135       33.0813    1.7424   -7.8944 H         1 UNK         0.0612 
    136 H136       33.8385   -0.4113   -4.9633 H         1 UNK         0.0624 
    137 H137       33.5958   -1.8921   -5.8600 H         1 UNK         0.0624 
@<TRIPOS>BOND
     1    1    2 1    
     2    1   72 1    
     3    1   73 1    
     4    1   74 1    
     5    2    3 2    
     6    2    4 am   BACKBONE|DICT|INTERRES
     7    4    5 1    
     8    4   75 1    
     9    5    6 1    
    10    5   35 1    
    11    5   76 1    
    12    6    7 1    
    13    6   77 1    
    14    6   78 1    
    15    7    8 1    
    16    8    9 1    
    17    8   79 1    
    18    8   80 1    
    19    9   10 ar   
    20    9   14 ar   
    21   10   11 ar   
    22   10   81 1    
    23   11   12 ar   
    24   11   71 1    
    25   12   13 ar   
    26   12   82 1    
    27   13   14 ar   
    28   13   15 1    
    29   14   83 1    
    30   15   16 1    
    31   15   84 1    
    32   15   85 1    
    33   16   17 1    
    34   17   18 1    
    35   17   86 1    
    36   17   87 1    
    37   18   19 1    
    38   18   37 1    
    39   18   88 1    
    40   19   20 am   BACKBONE|DICT|INTERRES
    41   19   89 1    
    42   20   21 2    
    43   20   22 1    
    44   22   23 1    
    45   22   24 1    
    46   22   90 1    
    47   23   91 1    
    48   23   92 1    
    49   23   93 1    
    50   24   25 am   BACKBONE|DICT|INTERRES
    51   24   94 1    
    52   25   26 2    
    53   25   27 1    
    54   27   28 1    
    55   27   29 1    
    56   27   95 1    
    57   28   96 1    
    58   28   97 1    
    59   28   98 1    
    60   29   30 am   BACKBONE|DICT|INTERRES
    61   29   99 1    
    62   30   31 2    
    63   30   32 1    
    64   32   33 1    
    65   32   34 1    
    66   32  100 1    
    67   33  101 1    
    68   33  102 1    
    69   33  103 1    
    70   34   35 am   BACKBONE|DICT|INTERRES
    71   34  104 1    
    72   35   36 2    
    73   37   38 2    
    74   37   39 am   BACKBONE|DICT|INTERRES
    75   39   40 1    
    76   39  105 1    
    77   40   41 1    
    78   40   42 1    
    79   40  106 1    
    80   41  107 1    
    81   41  108 1    
    82   41  109 1    
    83   42   43 2    
    84   42   44 am   BACKBONE|DICT|INTERRES
    85   44   45 1    
    86   44  110 1    
    87   45   46 1    
    88   45   47 1    
    89   45  111 1    
    90   46  112 1    
    91   46  113 1    
    92   46  114 1    
    93   47   48 2    
    94   47   49 am   BACKBONE|DICT|INTERRES
    95   49   50 1    
    96   49  115 1    
    97   50   51 1    
    98   50   52 1    
    99   50  116 1    
   100   51  117 1    
   101   51  118 1    
   102   51  119 1    
   103   52   53 2    
   104   52   54 am   BACKBONE|DICT|INTERRES
   105   54   55 1    
   106   54  120 1    
   107   55   56 1    
   108   55   57 1    
   109   55  121 1    
   110   56  122 1    
   111   56  123 1    
   112   56  124 1    
   113   57   58 2    
   114   57   59 am   BACKBONE|DICT|INTERRES
   115   59   60 1    
   116   59  125 1    
   117   60   61 1    
   118   60   62 1    
   119   60  126 1    
   120   61  127 1    
   121   61  128 1    
   122   61  129 1    
   123   62   63 2    
   124   62   64 am   BACKBONE|DICT|INTERRES
   125   64   65 1    
   126   64  130 1    
   127   65   66 1    
   128   65   69 1    
   129   65  131 1    
   130   66   67 am   BACKBONE|DICT|INTERRES
   131   66   68 2    
   132   67  132 1    
   133   67  133 1    
   134   69   70 1    
   135   69  134 1    
   136   69  135 1    
   137   70   71 1    
   138   71  136 1    
   139   71  137 1    
@<TRIPOS>SUBSTRUCTURE
     1 UNK         1 GROUP             0       ****    0 ROOT    
