@<TRIPOS>MOLECULE
3R137
137   139    1
SMALL
USER_CHARGES


@<TRIPOS>ATOM
      1 CA         26.9894   -2.7814    3.8652 C.3       0 UNK        -0.2020 
      2 C          27.4136   -2.1203    2.5623 C.2       0 UNK         0.4855 
      3 O          27.9594   -1.0171    2.5869 O.2       0 UNK        -0.5197 
      4 N          27.1722   -2.7895    1.4266 N.am      1 UNK        -0.4892 
      5 CA         27.4733   -2.2965    0.0766 C.3       1 UNK         0.0835 
      6 C6         27.3756   -3.4451   -0.9576 C.3       12 UNK        -0.0855 
      7 S7         28.0885   -3.0182   -2.5783 S.3       12 UNK        -0.2931 
      8 C8         29.5573   -4.0863   -2.6528 C.3       12 UNK         0.0378 
      9 C9         30.1622   -4.0646   -4.0484 C.ar      12 UNK        -0.0802 
     10 C10        31.2349   -3.2203   -4.3485 C.ar      12 UNK        -0.0944 
     11 C11        31.7796   -3.1926   -5.6372 C.ar      12 UNK        -0.0787 
     12 C12        31.2434   -4.0234   -6.6283 C.ar      12 UNK        -0.0862 
     13 C13        30.1802   -4.8843   -6.3354 C.ar      12 UNK        -0.0733 
     14 C14        29.6458   -4.8987   -5.0433 C.ar      12 UNK        -0.0832 
     15 C15        29.6375   -5.8360   -7.3959 C.3       12 UNK         0.0240 
     16 S16        28.5662   -5.0166   -8.6216 S.3       12 UNK        -0.2522 
     17 C17        27.1472   -4.4733   -7.6048 C.3       12 UNK        -0.0967 
     18 CA         26.6169   -3.0658   -7.9921 C.3       5 UNK         0.0660 
     19 N          25.3457   -2.7074   -7.3481 N.am      5 UNK        -0.4015 
     20 C          25.0980   -2.6400   -6.0338 C.2       4 UNK         0.4946 
     21 O          25.8956   -2.9895   -5.1638 O.2       4 UNK        -0.5353 
     22 CA         23.7586   -2.0144   -5.6117 C.3       4 UNK         0.0277 
     23 CB         22.8502   -3.0628   -4.9496 C.3       4 UNK        -0.1981 
     24 N          23.9626   -0.8967   -4.6852 N.am      4 UNK        -0.4209 
     25 C          24.7096    0.1896   -4.9211 C.2       3 UNK         0.4942 
     26 O          25.2781    0.4004   -5.9930 O.2       3 UNK        -0.5208 
     27 CA         24.8653    1.2285   -3.7951 C.3       3 UNK         0.0250 
     28 CB         23.8109    2.3428   -3.9383 C.3       3 UNK        -0.1990 
     29 N          24.8994    0.7041   -2.4196 N.am      3 UNK        -0.4232 
     30 C          23.9386    0.0968   -1.7104 C.2       2 UNK         0.4993 
     31 O          22.8522   -0.2461   -2.1808 O.2       2 UNK        -0.5286 
     32 CA         24.2558   -0.1765   -0.2256 C.3       2 UNK         0.0209 
     33 CB         23.0014   -0.5659    0.5796 C.3       2 UNK        -0.1931 
     34 N          25.2727   -1.2138   -0.0350 N.am      2 UNK        -0.4546 
     35 C          26.5823   -1.0894   -0.2958 C.2       1 UNK         0.5154 
     36 O          27.0891   -0.0661   -0.7612 O.2       1 UNK        -0.5181 
     37 C          27.6794   -1.9534   -7.8464 C.2       5 UNK         0.5014 
     38 O          28.2336   -1.5332   -8.8623 O.2       5 UNK        -0.5248 
     39 N          27.9256   -1.4667   -6.6222 N.am      6 UNK        -0.4434 
     40 CA         28.9392   -0.4560   -6.3019 C.3       6 UNK         0.0363 
     41 CB         28.9281   -0.1520   -4.7975 C.3       6 UNK        -0.1936 
     42 C          28.8378    0.8474   -7.1108 C.2       6 UNK         0.5081 
     43 O          29.8662    1.3671   -7.5452 O.2       6 UNK        -0.5248 
     44 N          27.6105    1.3361   -7.3327 N.am      7 UNK        -0.4718 
     45 CA         27.3332    2.5278   -8.1391 C.3       7 UNK         0.0273 
     46 CB         25.8903    2.9911   -7.8839 C.3       7 UNK        -0.1935 
     47 C          27.5745    2.3191   -9.6451 C.2       7 UNK         0.5018 
     48 O          27.8946    3.2861  -10.3366 O.2       7 UNK        -0.5186 
     49 N          27.4279    1.0761  -10.1261 N.am      8 UNK        -0.4240 
     50 CA         27.7129    0.6881  -11.5098 C.3       8 UNK         0.0235 
     51 CB         26.8871   -0.5532  -11.8872 C.3       8 UNK        -0.2000 
     52 C          29.2140    0.4370  -11.7176 C.2       8 UNK         0.4941 
     53 O          29.7613    0.8510  -12.7400 O.2       8 UNK        -0.5273 
     54 N          29.8547   -0.2111  -10.7337 N.am      9 UNK        -0.4262 
     55 CA         31.3001   -0.4420  -10.6740 C.3       9 UNK         0.0264 
     56 CB         31.6016   -1.4392   -9.5424 C.3       9 UNK        -0.1955 
     57 C          32.1130    0.8511  -10.4788 C.2       9 UNK         0.5031 
     58 O          33.2632    0.9063  -10.9159 O.2       9 UNK        -0.5390 
     59 N          31.5029    1.8501   -9.8223 N.am      10 UNK        -0.4204 
     60 CA         32.0554    3.1553   -9.4433 C.3       10 UNK         0.0237 
     61 CB         32.4315    3.9899  -10.6863 C.3       10 UNK        -0.1985 
     62 C          33.1977    3.0380   -8.4157 C.2       10 UNK         0.4970 
     63 O          34.1249    3.8499   -8.4299 O.2       10 UNK        -0.4914 
     64 N          33.1047    2.0298   -7.5399 N.am      11 UNK        -0.4285 
     65 CA         34.0708    1.7486   -6.4682 C.3       11 UNK         0.1007 
     66 C          33.8647    2.5909   -5.1751 C.2       11 UNK         0.5703 
     67 N          32.7886    3.3587   -5.0444 N.am      11 UNK        -0.7361 
     68 O          34.7090    2.5626   -4.2826 O.2       11 UNK        -0.4986 
     69 C69        34.1693    0.2269   -6.1810 C.3       12 UNK        -0.0947 
     70 S70        32.5796   -0.5343   -5.7163 S.3       12 UNK        -0.2240 
     71 C71        32.9716   -2.2951   -5.9445 C.3       12 UNK         0.0194 
     72 H72        27.8537   -2.9206    4.5140 H         1 UNK         0.0906 
     73 H73        26.2692   -2.1521    4.3876 H         1 UNK         0.0906 
     74 H74        26.5301   -3.7558    3.6994 H         1 UNK         0.0906 
     75 H75        26.7310   -3.6973    1.4772 H         1 UNK         0.3140 
     76 H76        28.5062   -1.9401    0.0869 H         1 UNK         0.1085 
     77 H77        27.8884   -4.3294   -0.5758 H         1 UNK         0.0836 
     78 H78        26.3380   -3.7491   -1.1082 H         1 UNK         0.0836 
     79 H79        30.2857   -3.7561   -1.9106 H         1 UNK         0.0731 
     80 H80        29.2834   -5.1091   -2.3891 H         1 UNK         0.0731 
     81 H81        31.6443   -2.5775   -3.5812 H         1 UNK         0.1312 
     82 H82        31.6621   -4.0158   -7.6253 H         1 UNK         0.1406 
     83 H83        28.8220   -5.5588   -4.8074 H         1 UNK         0.1631 
     84 H84        29.0840   -6.6542   -6.9324 H         1 UNK         0.0717 
     85 H85        30.4740   -6.2993   -7.9209 H         1 UNK         0.0717 
     86 H86        26.3527   -5.2110   -7.7247 H         1 UNK         0.0934 
     87 H87        27.4173   -4.5004   -6.5508 H         1 UNK         0.0934 
     88 H88        26.3769   -3.1068   -9.0561 H         1 UNK         0.0739 
     89 H89        24.6333   -2.3686   -7.9794 H         1 UNK         0.3093 
     90 H90        23.2506   -1.6209   -6.4943 H         1 UNK         0.0818 
     91 H91        21.8820   -2.6385   -4.6829 H         1 UNK         0.0819 
     92 H92        22.6638   -3.9003   -5.6231 H         1 UNK         0.0819 
     93 H93        23.3002   -3.4674   -4.0416 H         1 UNK         0.0819 
     94 H94        23.5049   -0.9501   -3.7790 H         1 UNK         0.3041 
     95 H95        25.8430    1.6885   -3.9481 H         1 UNK         0.0784 
     96 H96        23.8508    2.7914   -4.9320 H         1 UNK         0.0793 
     97 H97        22.7979    1.9656   -3.7945 H         1 UNK         0.0793 
     98 H98        23.9776    3.1419   -3.2160 H         1 UNK         0.0793 
     99 H99        25.7935    0.8048   -1.9451 H         1 UNK         0.3024 
    100 H100       24.6378    0.7569    0.1950 H         1 UNK         0.1171 
    101 H101       22.5780   -1.5115    0.2383 H         1 UNK         0.0786 
    102 H102       22.2238    0.1931    0.4826 H         1 UNK         0.0786 
    103 H103       23.2254   -0.6621    1.6423 H         1 UNK         0.0786 
    104 H104       24.9495   -2.0908    0.3465 H         1 UNK         0.2977 
    105 H105       27.4069   -1.8695   -5.8466 H         1 UNK         0.3127 
    106 H106       29.8995   -0.9066   -6.5501 H         1 UNK         0.0770 
    107 H107       29.2619   -1.0160   -4.2268 H         1 UNK         0.0814 
    108 H108       27.9351    0.1272   -4.4444 H         1 UNK         0.0814 
    109 H109       29.6087    0.6655   -4.5553 H         1 UNK         0.0814 
    110 H110       26.8082    0.8679   -6.9125 H         1 UNK         0.2983 
    111 H111       28.0080    3.3212   -7.8098 H         1 UNK         0.0947 
    112 H112       25.6632    3.8960   -8.4492 H         1 UNK         0.0806 
    113 H113       25.7283    3.2177   -6.8300 H         1 UNK         0.0806 
    114 H114       25.1653    2.2306   -8.1769 H         1 UNK         0.0806 
    115 H115       27.2365    0.3273   -9.4728 H         1 UNK         0.3000 
    116 H116       27.4147    1.5027  -12.1739 H         1 UNK         0.0850 
    117 H117       27.0560   -0.8278  -12.9293 H         1 UNK         0.0810 
    118 H118       25.8191   -0.3688  -11.7706 H         1 UNK         0.0810 
    119 H119       27.1462   -1.4198  -11.2786 H         1 UNK         0.0810 
    120 H120       29.3004   -0.5909   -9.9666 H         1 UNK         0.3040 
    121 H121       31.6094   -0.8891  -11.6209 H         1 UNK         0.0766 
    122 H122       32.6688   -1.6575   -9.4856 H         1 UNK         0.0812 
    123 H123       31.0824   -2.3853   -9.6978 H         1 UNK         0.0812 
    124 H124       31.2960   -1.0496   -8.5709 H         1 UNK         0.0812 
    125 H125       30.5998    1.6412   -9.4079 H         1 UNK         0.3205 
    126 H126       31.2475    3.6799   -8.9311 H         1 UNK         0.0754 
    127 H127       32.6939    5.0110  -10.4067 H         1 UNK         0.0769 
    128 H128       31.5993    4.0506  -11.3878 H         1 UNK         0.0769 
    129 H129       33.2869    3.5689  -11.2153 H         1 UNK         0.0769 
    130 H130       32.2833    1.4399   -7.5595 H         1 UNK         0.2981 
    131 H131       35.0547    2.0465   -6.8353 H         1 UNK         0.0541 
    132 H132       32.0874    3.3806   -5.7668 H         1 UNK         0.3459 
    133 H133       32.6709    3.9053   -4.2062 H         1 UNK         0.3459 
    134 H134       34.9002    0.0234   -5.3963 H         1 UNK         0.0612 
    135 H135       34.5421   -0.2792   -7.0730 H         1 UNK         0.0612 
    136 H136       33.3169   -2.4513   -6.9676 H         1 UNK         0.0624 
    137 H137       33.8009   -2.5654   -5.2895 H         1 UNK         0.0624 
@<TRIPOS>BOND
     1    1    2 1    
     2    1   72 1    
     3    1   73 1    
     4    1   74 1    
     5    2    3 2    
     6    2    4 am   BACKBONE|DICT|INTERRES
     7    4    5 1    
     8    4   75 1    
     9    5    6 1    
    10    5   35 1    
    11    5   76 1    
    12    6    7 1    
    13    6   77 1    
    14    6   78 1    
    15    7    8 1    
    16    8    9 1    
    17    8   79 1    
    18    8   80 1    
    19    9   10 ar   
    20    9   14 ar   
    21   10   11 ar   
    22   10   81 1    
    23   11   12 ar   
    24   11   71 1    
    25   12   13 ar   
    26   12   82 1    
    27   13   14 ar   
    28   13   15 1    
    29   14   83 1    
    30   15   16 1    
    31   15   84 1    
    32   15   85 1    
    33   16   17 1    
    34   17   18 1    
    35   17   86 1    
    36   17   87 1    
    37   18   19 1    
    38   18   37 1    
    39   18   88 1    
    40   19   20 am   BACKBONE|DICT|INTERRES
    41   19   89 1    
    42   20   21 2    
    43   20   22 1    
    44   22   23 1    
    45   22   24 1    
    46   22   90 1    
    47   23   91 1    
    48   23   92 1    
    49   23   93 1    
    50   24   25 am   BACKBONE|DICT|INTERRES
    51   24   94 1    
    52   25   26 2    
    53   25   27 1    
    54   27   28 1    
    55   27   29 1    
    56   27   95 1    
    57   28   96 1    
    58   28   97 1    
    59   28   98 1    
    60   29   30 am   BACKBONE|DICT|INTERRES
    61   29   99 1    
    62   30   31 2    
    63   30   32 1    
    64   32   33 1    
    65   32   34 1    
    66   32  100 1    
    67   33  101 1    
    68   33  102 1    
    69   33  103 1    
    70   34   35 am   BACKBONE|DICT|INTERRES
    71   34  104 1    
    72   35   36 2    
    73   37   38 2    
    74   37   39 am   BACKBONE|DICT|INTERRES
    75   39   40 1    
    76   39  105 1    
    77   40   41 1    
    78   40   42 1    
    79   40  106 1    
    80   41  107 1    
    81   41  108 1    
    82   41  109 1    
    83   42   43 2    
    84   42   44 am   BACKBONE|DICT|INTERRES
    85   44   45 1    
    86   44  110 1    
    87   45   46 1    
    88   45   47 1    
    89   45  111 1    
    90   46  112 1    
    91   46  113 1    
    92   46  114 1    
    93   47   48 2    
    94   47   49 am   BACKBONE|DICT|INTERRES
    95   49   50 1    
    96   49  115 1    
    97   50   51 1    
    98   50   52 1    
    99   50  116 1    
   100   51  117 1    
   101   51  118 1    
   102   51  119 1    
   103   52   53 2    
   104   52   54 am   BACKBONE|DICT|INTERRES
   105   54   55 1    
   106   54  120 1    
   107   55   56 1    
   108   55   57 1    
   109   55  121 1    
   110   56  122 1    
   111   56  123 1    
   112   56  124 1    
   113   57   58 2    
   114   57   59 am   BACKBONE|DICT|INTERRES
   115   59   60 1    
   116   59  125 1    
   117   60   61 1    
   118   60   62 1    
   119   60  126 1    
   120   61  127 1    
   121   61  128 1    
   122   61  129 1    
   123   62   63 2    
   124   62   64 am   BACKBONE|DICT|INTERRES
   125   64   65 1    
   126   64  130 1    
   127   65   66 1    
   128   65   69 1    
   129   65  131 1    
   130   66   67 am   BACKBONE|DICT|INTERRES
   131   66   68 2    
   132   67  132 1    
   133   67  133 1    
   134   69   70 1    
   135   69  134 1    
   136   69  135 1    
   137   70   71 1    
   138   71  136 1    
   139   71  137 1    
@<TRIPOS>SUBSTRUCTURE
     1 UNK         1 GROUP             0       ****    0 ROOT    
