@<TRIPOS>MOLECULE
3R137
137   139    1
SMALL
USER_CHARGES


@<TRIPOS>ATOM
      1 CA         23.9929   -5.5867   -4.5546 C.3       0 UNK        -0.2020 
      2 C          24.5851   -4.9684   -3.2976 C.2       0 UNK         0.4855 
      3 O          23.9053   -4.2058   -2.6102 O.2       0 UNK        -0.5197 
      4 N          25.8532   -5.2813   -2.9999 N.am      1 UNK        -0.4892 
      5 CA         26.6209   -4.7671   -1.8597 C.3       1 UNK         0.0835 
      6 C6         27.9999   -5.4634   -1.7828 C.3       12 UNK        -0.0855 
      7 S7         28.9293   -5.0777   -0.2591 S.3       12 UNK        -0.2931 
      8 C8         30.6444   -5.0313   -0.8761 C.3       12 UNK         0.0378 
      9 C9         30.8991   -3.8379   -1.7870 C.ar      12 UNK        -0.0802 
     10 C10        30.9594   -4.0064   -3.1738 C.ar      12 UNK        -0.0944 
     11 C11        31.1870   -2.9123   -4.0113 C.ar      12 UNK        -0.0787 
     12 C12        31.3940   -1.6507   -3.4512 C.ar      12 UNK        -0.0862 
     13 C13        31.3046   -1.4580   -2.0685 C.ar      12 UNK        -0.0733 
     14 C14        31.0684   -2.5616   -1.2420 C.ar      12 UNK        -0.0832 
     15 C15        31.4346   -0.0680   -1.4463 C.3       12 UNK         0.0240 
     16 S16        30.7049    1.2920   -2.4318 S.3       12 UNK        -0.2522 
     17 C17        29.0406    0.6617   -2.8441 C.3       12 UNK        -0.0967 
     18 CA         28.8423    0.5524   -4.3818 C.3       5 UNK         0.0660 
     19 N          28.0444   -0.6115   -4.7689 N.am      5 UNK        -0.4015 
     20 C          27.8704   -1.0423   -6.0275 C.2       4 UNK         0.4946 
     21 O          28.4907   -0.6055   -6.9979 O.2       4 UNK        -0.5353 
     22 CA         26.7861   -2.1108   -6.2480 C.3       4 UNK         0.0277 
     23 CB         27.3747   -3.5278   -6.1600 C.3       4 UNK        -0.1981 
     24 N          25.6777   -1.9651   -5.2985 N.am      4 UNK        -0.4209 
     25 C          24.7601   -0.9876   -5.3626 C.2       3 UNK         0.4942 
     26 O          24.7058   -0.1653   -6.2748 O.2       3 UNK        -0.5208 
     27 CA         23.7646   -0.8710   -4.1960 C.3       3 UNK         0.0250 
     28 CB         22.5060   -1.7110   -4.4618 C.3       3 UNK        -0.1990 
     29 N          24.3598   -1.2415   -2.9092 N.am      3 UNK        -0.4232 
     30 C          25.2806   -0.4960   -2.2776 C.2       2 UNK         0.4993 
     31 O          25.6783    0.5901   -2.6979 O.2       2 UNK        -0.5286 
     32 CA         25.9134   -1.0736   -0.9985 C.3       2 UNK         0.0209 
     33 CB         25.1119   -0.6422    0.2393 C.3       2 UNK        -0.1931 
     34 N          26.0454   -2.5335   -1.0128 N.am      2 UNK        -0.4546 
     35 C          26.7295   -3.2286   -1.9323 C.2       1 UNK         0.5154 
     36 O          27.3540   -2.7013   -2.8550 O.2       1 UNK        -0.5181 
     37 C          28.2661    1.8474   -4.9883 C.2       5 UNK         0.5014 
     38 O          28.9767    2.5558   -5.7044 O.2       5 UNK        -0.5248 
     39 N          26.9746    2.1003   -4.7244 N.am      6 UNK        -0.4434 
     40 CA         26.2184    3.2636   -5.1981 C.3       6 UNK         0.0363 
     41 CB         24.8250    3.2594   -4.5502 C.3       6 UNK        -0.1936 
     42 C          26.0934    3.3627   -6.7288 C.2       6 UNK         0.5081 
     43 O          25.9838    4.4746   -7.2463 O.2       6 UNK        -0.5248 
     44 N          26.1232    2.2181   -7.4275 N.am      7 UNK        -0.4718 
     45 CA         26.1053    2.1280   -8.8909 C.3       7 UNK         0.0273 
     46 CB         25.9502    0.6588   -9.3159 C.3       7 UNK        -0.1935 
     47 C          27.3383    2.7486   -9.5715 C.2       7 UNK         0.5018 
     48 O          27.2357    3.1351  -10.7359 O.2       7 UNK        -0.5186 
     49 N          28.4721    2.8206   -8.8549 N.am      8 UNK        -0.4240 
     50 CA         29.7500    3.4674   -9.2007 C.3       8 UNK         0.0235 
     51 CB         29.5599    4.9891   -9.3534 C.3       8 UNK        -0.2000 
     52 C          30.5168    2.8923  -10.4106 C.2       8 UNK         0.4941 
     53 O          31.7387    3.0328  -10.4534 O.2       8 UNK        -0.5273 
     54 N          29.8181    2.2627  -11.3639 N.am      9 UNK        -0.4262 
     55 CA         30.3807    1.6173  -12.5550 C.3       9 UNK         0.0264 
     56 CB         29.2446    1.3203  -13.5473 C.3       9 UNK        -0.1955 
     57 C          31.1725    0.3336  -12.2429 C.2       9 UNK         0.5031 
     58 O          32.0523   -0.0351  -13.0232 O.2       9 UNK        -0.5390 
     59 N          30.8445   -0.3165  -11.1190 N.am      10 UNK        -0.4204 
     60 CA         31.5719   -1.4482  -10.5457 C.3       10 UNK         0.0237 
     61 CB         30.5489   -2.4396   -9.9474 C.3       10 UNK        -0.1985 
     62 C          32.5997   -0.9191   -9.5246 C.2       10 UNK         0.4970 
     63 O          33.2793    0.0714   -9.7978 O.2       10 UNK        -0.4914 
     64 N          32.6908   -1.5684   -8.3593 N.am      11 UNK        -0.4285 
     65 CA         33.4393   -1.0951   -7.1834 C.3       11 UNK         0.1007 
     66 C          32.8281    0.1581   -6.4852 C.2       11 UNK         0.5703 
     67 N          31.6009    0.5672   -6.7877 N.am      11 UNK        -0.7361 
     68 O          33.4913    0.7792   -5.6591 O.2       11 UNK        -0.4986 
     69 C69        33.7812   -2.2392   -6.1739 C.3       12 UNK        -0.0947 
     70 S70        32.6980   -3.7135   -6.2053 S.3       12 UNK        -0.2240 
     71 C71        31.1394   -3.0831   -5.5205 C.3       12 UNK         0.0194 
     72 H72        23.8898   -4.8321   -5.3336 H         1 UNK         0.0906 
     73 H73        24.6147   -6.3933   -4.9427 H         1 UNK         0.0906 
     74 H74        23.0054   -5.9957   -4.3424 H         1 UNK         0.0906 
     75 H75        26.3593   -5.9015   -3.6158 H         1 UNK         0.3140 
     76 H76        26.0650   -5.0316   -0.9575 H         1 UNK         0.1085 
     77 H77        28.5898   -5.2144   -2.6644 H         1 UNK         0.0836 
     78 H78        27.8687   -6.5464   -1.8111 H         1 UNK         0.0836 
     79 H79        30.8687   -5.9667   -1.3913 H         1 UNK         0.0731 
     80 H80        31.3238   -4.9849   -0.0237 H         1 UNK         0.0731 
     81 H81        30.8097   -4.9861   -3.6063 H         1 UNK         0.1312 
     82 H82        31.5837   -0.8070   -4.0964 H         1 UNK         0.1406 
     83 H83        31.0013   -2.4295   -0.1705 H         1 UNK         0.1631 
     84 H84        32.4921    0.1455   -1.2868 H         1 UNK         0.0717 
     85 H85        30.9647   -0.0537   -0.4616 H         1 UNK         0.0717 
     86 H86        28.9081   -0.3138   -2.3749 H         1 UNK         0.0934 
     87 H87        28.2941    1.3042   -2.3732 H         1 UNK         0.0934 
     88 H88        29.8150    0.3961   -4.8442 H         1 UNK         0.0739 
     89 H89        27.5788   -1.1190   -4.0236 H         1 UNK         0.3093 
     90 H90        26.3903   -1.9738   -7.2568 H         1 UNK         0.0818 
     91 H91        26.6097   -4.2866   -6.3243 H         1 UNK         0.0819 
     92 H92        28.1409   -3.6728   -6.9226 H         1 UNK         0.0819 
     93 H93        27.8385   -3.7214   -5.1927 H         1 UNK         0.0819 
     94 H94        25.7035   -2.5547   -4.4782 H         1 UNK         0.3041 
     95 H95        23.4557    0.1744   -4.1319 H         1 UNK         0.0784 
     96 H96        22.0149   -1.3917   -5.3821 H         1 UNK         0.0793 
     97 H97        22.7360   -2.7702   -4.5694 H         1 UNK         0.0793 
     98 H98        21.7808   -1.6058   -3.6548 H         1 UNK         0.0793 
     99 H99        24.1116   -2.1510   -2.5310 H         1 UNK         0.3024 
    100 H100       26.9185   -0.6548   -0.9174 H         1 UNK         0.1171 
    101 H101       25.6010   -0.9605    1.1602 H         1 UNK         0.0786 
    102 H102       25.0182    0.4440    0.2837 H         1 UNK         0.0786 
    103 H103       24.1029   -1.0565    0.2327 H         1 UNK         0.0786 
    104 H104       25.5257   -3.0398   -0.3101 H         1 UNK         0.2977 
    105 H105       26.4789    1.4736   -4.0912 H         1 UNK         0.3127 
    106 H106       26.7505    4.1546   -4.8588 H         1 UNK         0.0770 
    107 H107       24.2481    2.3836   -4.8487 H         1 UNK         0.0814 
    108 H108       24.2545    4.1417   -4.8435 H         1 UNK         0.0814 
    109 H109       24.8912    3.2629   -3.4620 H         1 UNK         0.0814 
    110 H110       26.1150    1.3427   -6.9168 H         1 UNK         0.2983 
    111 H111       25.2318    2.6802   -9.2441 H         1 UNK         0.0947 
    112 H112       26.7825    0.0472   -8.9674 H         1 UNK         0.0806 
    113 H113       25.9115    0.5674  -10.4023 H         1 UNK         0.0806 
    114 H114       25.0287    0.2272   -8.9254 H         1 UNK         0.0806 
    115 H115       28.4341    2.4513   -7.9111 H         1 UNK         0.3000 
    116 H116       30.3934    3.3043   -8.3343 H         1 UNK         0.0850 
    117 H117       30.5177    5.4897   -9.5016 H         1 UNK         0.0810 
    118 H118       29.1026    5.4213   -8.4631 H         1 UNK         0.0810 
    119 H119       28.9292    5.2361  -10.2080 H         1 UNK         0.0810 
    120 H120       28.8048    2.3051  -11.2898 H         1 UNK         0.3040 
    121 H121       31.0714    2.3213  -13.0241 H         1 UNK         0.0766 
    122 H122       29.6319    0.8643  -14.4596 H         1 UNK         0.0812 
    123 H123       28.7236    2.2327  -13.8384 H         1 UNK         0.0812 
    124 H124       28.5092    0.6339  -13.1257 H         1 UNK         0.0812 
    125 H125       30.1249    0.0940  -10.5427 H         1 UNK         0.3205 
    126 H126       32.1302   -1.9667  -11.3278 H         1 UNK         0.0754 
    127 H127       31.0331   -3.3510   -9.5941 H         1 UNK         0.0769 
    128 H128       29.8196   -2.7457  -10.6979 H         1 UNK         0.0769 
    129 H129       29.9954   -2.0063   -9.1123 H         1 UNK         0.0769 
    130 H130       32.1308   -2.3947   -8.2103 H         1 UNK         0.2981 
    131 H131       34.3981   -0.7359   -7.5630 H         1 UNK         0.0541 
    132 H132       31.2358    1.3918   -6.3373 H         1 UNK         0.3459 
    133 H133       31.0211    0.0521   -7.4297 H         1 UNK         0.3459 
    134 H134       34.7829   -2.6062   -6.4015 H         1 UNK         0.0612 
    135 H135       33.8484   -1.8781   -5.1459 H         1 UNK         0.0612 
    136 H136       30.8662   -2.1469   -6.0077 H         1 UNK         0.0624 
    137 H137       30.3494   -3.7909   -5.7725 H         1 UNK         0.0624 
@<TRIPOS>BOND
     1    1    2 1    
     2    1   72 1    
     3    1   73 1    
     4    1   74 1    
     5    2    3 2    
     6    2    4 am   BACKBONE|DICT|INTERRES
     7    4    5 1    
     8    4   75 1    
     9    5    6 1    
    10    5   35 1    
    11    5   76 1    
    12    6    7 1    
    13    6   77 1    
    14    6   78 1    
    15    7    8 1    
    16    8    9 1    
    17    8   79 1    
    18    8   80 1    
    19    9   10 ar   
    20    9   14 ar   
    21   10   11 ar   
    22   10   81 1    
    23   11   12 ar   
    24   11   71 1    
    25   12   13 ar   
    26   12   82 1    
    27   13   14 ar   
    28   13   15 1    
    29   14   83 1    
    30   15   16 1    
    31   15   84 1    
    32   15   85 1    
    33   16   17 1    
    34   17   18 1    
    35   17   86 1    
    36   17   87 1    
    37   18   19 1    
    38   18   37 1    
    39   18   88 1    
    40   19   20 am   BACKBONE|DICT|INTERRES
    41   19   89 1    
    42   20   21 2    
    43   20   22 1    
    44   22   23 1    
    45   22   24 1    
    46   22   90 1    
    47   23   91 1    
    48   23   92 1    
    49   23   93 1    
    50   24   25 am   BACKBONE|DICT|INTERRES
    51   24   94 1    
    52   25   26 2    
    53   25   27 1    
    54   27   28 1    
    55   27   29 1    
    56   27   95 1    
    57   28   96 1    
    58   28   97 1    
    59   28   98 1    
    60   29   30 am   BACKBONE|DICT|INTERRES
    61   29   99 1    
    62   30   31 2    
    63   30   32 1    
    64   32   33 1    
    65   32   34 1    
    66   32  100 1    
    67   33  101 1    
    68   33  102 1    
    69   33  103 1    
    70   34   35 am   BACKBONE|DICT|INTERRES
    71   34  104 1    
    72   35   36 2    
    73   37   38 2    
    74   37   39 am   BACKBONE|DICT|INTERRES
    75   39   40 1    
    76   39  105 1    
    77   40   41 1    
    78   40   42 1    
    79   40  106 1    
    80   41  107 1    
    81   41  108 1    
    82   41  109 1    
    83   42   43 2    
    84   42   44 am   BACKBONE|DICT|INTERRES
    85   44   45 1    
    86   44  110 1    
    87   45   46 1    
    88   45   47 1    
    89   45  111 1    
    90   46  112 1    
    91   46  113 1    
    92   46  114 1    
    93   47   48 2    
    94   47   49 am   BACKBONE|DICT|INTERRES
    95   49   50 1    
    96   49  115 1    
    97   50   51 1    
    98   50   52 1    
    99   50  116 1    
   100   51  117 1    
   101   51  118 1    
   102   51  119 1    
   103   52   53 2    
   104   52   54 am   BACKBONE|DICT|INTERRES
   105   54   55 1    
   106   54  120 1    
   107   55   56 1    
   108   55   57 1    
   109   55  121 1    
   110   56  122 1    
   111   56  123 1    
   112   56  124 1    
   113   57   58 2    
   114   57   59 am   BACKBONE|DICT|INTERRES
   115   59   60 1    
   116   59  125 1    
   117   60   61 1    
   118   60   62 1    
   119   60  126 1    
   120   61  127 1    
   121   61  128 1    
   122   61  129 1    
   123   62   63 2    
   124   62   64 am   BACKBONE|DICT|INTERRES
   125   64   65 1    
   126   64  130 1    
   127   65   66 1    
   128   65   69 1    
   129   65  131 1    
   130   66   67 am   BACKBONE|DICT|INTERRES
   131   66   68 2    
   132   67  132 1    
   133   67  133 1    
   134   69   70 1    
   135   69  134 1    
   136   69  135 1    
   137   70   71 1    
   138   71  136 1    
   139   71  137 1    
@<TRIPOS>SUBSTRUCTURE
     1 UNK         1 GROUP             0       ****    0 ROOT    
