@<TRIPOS>MOLECULE
3R137
137   139    1
SMALL
USER_CHARGES


@<TRIPOS>ATOM
      1 CA         27.4277   -6.4903    1.5412 C.3       0 UNK        -0.2020 
      2 C          26.6788   -5.1663    1.5332 C.2       0 UNK         0.4855 
      3 O          25.4907   -5.1325    1.8541 O.2       0 UNK        -0.5197 
      4 N          27.3651   -4.0748    1.1712 N.am      1 UNK        -0.4892 
      5 CA         26.8097   -2.7184    1.0700 C.3       1 UNK         0.0835 
      6 C6         27.9204   -1.6345    1.0267 C.3       12 UNK        -0.0855 
      7 S7         29.2778   -1.9950   -0.1443 S.3       12 UNK        -0.2931 
      8 C8         28.8393   -0.9231   -1.5456 C.3       12 UNK         0.0378 
      9 C9         29.6958   -1.2362   -2.7626 C.ar      12 UNK        -0.0802 
     10 C10        30.6487   -0.3205   -3.2202 C.ar      12 UNK        -0.0944 
     11 C11        31.4181   -0.6088   -4.3516 C.ar      12 UNK        -0.0787 
     12 C12        31.2388   -1.8258   -5.0160 C.ar      12 UNK        -0.0862 
     13 C13        30.2958   -2.7513   -4.5644 C.ar      12 UNK        -0.0733 
     14 C14        29.5222   -2.4462   -3.4408 C.ar      12 UNK        -0.0832 
     15 C15        30.1316   -4.0880   -5.2758 C.3       12 UNK         0.0240 
     16 S16        29.2879   -3.9312   -6.8830 S.3       12 UNK        -0.2522 
     17 C17        27.6453   -3.3289   -6.3801 C.3       12 UNK        -0.0967 
     18 CA         27.1453   -2.1075   -7.1868 C.3       5 UNK         0.0660 
     19 N          25.7284   -1.8694   -6.9055 N.am      5 UNK        -0.4015 
     20 C          24.9033   -1.1262   -7.6534 C.2       4 UNK         0.4946 
     21 O          25.2371   -0.5735   -8.6999 O.2       4 UNK        -0.5353 
     22 CA         23.4686   -0.9470   -7.1261 C.3       4 UNK         0.0277 
     23 CB         22.5764   -2.1125   -7.5818 C.3       4 UNK        -0.1981 
     24 N          23.4094   -0.8222   -5.6662 N.am      4 UNK        -0.4209 
     25 C          23.9159    0.2134   -4.9816 C.2       3 UNK         0.4942 
     26 O          24.4382    1.1898   -5.5144 O.2       3 UNK        -0.5208 
     27 CA         23.8761    0.1359   -3.4470 C.3       3 UNK         0.0250 
     28 CB         22.5647    0.7323   -2.9122 C.3       3 UNK        -0.1990 
     29 N          24.0586   -1.2142   -2.9048 N.am      3 UNK        -0.4232 
     30 C          25.1321   -1.9904   -3.1071 C.2       2 UNK         0.4993 
     31 O          26.0742   -1.6802   -3.8400 O.2       2 UNK        -0.5286 
     32 CA         25.1493   -3.3429   -2.3721 C.3       2 UNK         0.0209 
     33 CB         25.6160   -4.4797   -3.2983 C.3       2 UNK        -0.1931 
     34 N          26.0013   -3.3175   -1.1807 N.am      2 UNK        -0.4546 
     35 C          25.8019   -2.5615   -0.0900 C.2       1 UNK         0.5154 
     36 O          24.8546   -1.7847    0.0395 O.2       1 UNK        -0.5181 
     37 C          27.9761   -0.8260   -6.9503 C.2       5 UNK         0.5014 
     38 O          28.8520   -0.5054   -7.7599 O.2       5 UNK        -0.5248 
     39 N          27.6353   -0.0803   -5.8869 N.am      6 UNK        -0.4434 
     40 CA         28.1726    1.2519   -5.6048 C.3       6 UNK         0.0363 
     41 CB         27.7013    1.7296   -4.2224 C.3       6 UNK        -0.1936 
     42 C          27.7996    2.2742   -6.6925 C.2       6 UNK         0.5081 
     43 O          28.6813    2.9794   -7.1807 O.2       6 UNK        -0.5248 
     44 N          26.5164    2.3128   -7.0834 N.am      7 UNK        -0.4718 
     45 CA         25.9824    3.1826   -8.1392 C.3       7 UNK         0.0273 
     46 CB         24.4498    3.0788   -8.1721 C.3       7 UNK        -0.1935 
     47 C          26.5706    2.8939   -9.5306 C.2       7 UNK         0.5018 
     48 O          26.7786    3.8306  -10.3024 O.2       7 UNK        -0.5186 
     49 N          26.8656    1.6167   -9.8121 N.am      8 UNK        -0.4240 
     50 CA         27.5856    1.1663  -11.0069 C.3       8 UNK         0.0235 
     51 CB         27.4306   -0.3576  -11.1456 C.3       8 UNK        -0.2000 
     52 C          29.0774    1.5559  -11.0187 C.2       8 UNK         0.4941 
     53 O          29.7075    1.4373  -12.0704 O.2       8 UNK        -0.5273 
     54 N          29.6137    2.0005   -9.8700 N.am      9 UNK        -0.4262 
     55 CA         30.9983    2.4181   -9.6303 C.3       9 UNK         0.0264 
     56 CB         31.3325    3.7016  -10.4198 C.3       9 UNK        -0.1955 
     57 C          32.0115    1.2838   -9.8631 C.2       9 UNK         0.5031 
     58 O          33.0962    1.5256  -10.3976 O.2       9 UNK        -0.5390 
     59 N          31.6554    0.0635   -9.4322 N.am      10 UNK        -0.4204 
     60 CA         32.4620   -1.1532   -9.5990 C.3       10 UNK         0.0237 
     61 CB         31.6356   -2.3641   -9.1463 C.3       10 UNK        -0.1985 
     62 C          33.8310   -1.1253   -8.8880 C.2       10 UNK         0.4970 
     63 O          34.7147   -1.8997   -9.2570 O.2       10 UNK        -0.4914 
     64 N          33.9890   -0.2270   -7.9084 N.am      11 UNK        -0.4285 
     65 CA         35.2619    0.0983   -7.2482 C.3       11 UNK         0.1007 
     66 C          36.2479    0.9147   -8.1366 C.2       11 UNK         0.5703 
     67 N          35.8364    1.4668   -9.2734 N.am      11 UNK        -0.7361 
     68 O          37.4192    1.0425   -7.7876 O.2       11 UNK        -0.4986 
     69 C69        35.0301    0.8069   -5.8860 C.3       12 UNK        -0.0947 
     70 S70        34.1308   -0.2441   -4.6994 S.3       12 UNK        -0.2240 
     71 C71        32.4348    0.3915   -4.8757 C.3       12 UNK         0.0194 
     72 H72        28.4690   -6.3724    1.2418 H         1 UNK         0.0906 
     73 H73        26.9552   -7.1926    0.8550 H         1 UNK         0.0906 
     74 H74        27.4098   -6.9255    2.5401 H         1 UNK         0.0906 
     75 H75        28.3425   -4.1523    0.9226 H         1 UNK         0.3140 
     76 H76        26.2324   -2.5447    1.9814 H         1 UNK         0.1085 
     77 H77        28.3710   -1.5561    2.0174 H         1 UNK         0.0836 
     78 H78        27.5023   -0.6455    0.8265 H         1 UNK         0.0836 
     79 H79        27.7896   -1.0598   -1.8049 H         1 UNK         0.0731 
     80 H80        28.9517    0.1203   -1.2471 H         1 UNK         0.0731 
     81 H81        30.7848    0.6188   -2.7020 H         1 UNK         0.1312 
     82 H82        31.8434   -2.0553   -5.8816 H         1 UNK         0.1406 
     83 H83        28.7858   -3.1517   -3.0824 H         1 UNK         0.1631 
     84 H84        29.5817   -4.7943   -4.6517 H         1 UNK         0.0717 
     85 H85        31.1156   -4.5298   -5.4391 H         1 UNK         0.0717 
     86 H86        26.9536   -4.1631   -6.5087 H         1 UNK         0.0934 
     87 H87        27.6377   -3.1052   -5.3156 H         1 UNK         0.0934 
     88 H88        27.2280   -2.3519   -8.2482 H         1 UNK         0.0739 
     89 H89        25.3885   -2.2192   -6.0212 H         1 UNK         0.3093 
     90 H90        23.0714   -0.0262   -7.5584 H         1 UNK         0.0818 
     91 H91        22.5912   -2.2115   -8.6683 H         1 UNK         0.0819 
     92 H92        22.9049   -3.0648   -7.1636 H         1 UNK         0.0819 
     93 H93        21.5384   -1.9560   -7.2876 H         1 UNK         0.0819 
     94 H94        22.9810   -1.5780   -5.1516 H         1 UNK         0.3041 
     95 H95        24.7018    0.7445   -3.0728 H         1 UNK         0.0784 
     96 H96        22.4180    1.7478   -3.2836 H         1 UNK         0.0793 
     97 H97        21.6979    0.1448   -3.2177 H         1 UNK         0.0793 
     98 H98        22.5683    0.7860   -1.8233 H         1 UNK         0.0793 
     99 H99        23.3559   -1.5308   -2.2514 H         1 UNK         0.3024 
    100 H100       24.1312   -3.5740   -2.0509 H         1 UNK         0.1171 
    101 H101       25.0368   -4.4981   -4.2225 H         1 UNK         0.0786 
    102 H102       26.6659   -4.3772   -3.5713 H         1 UNK         0.0786 
    103 H103       25.4915   -5.4522   -2.8215 H         1 UNK         0.0786 
    104 H104       26.8099   -3.9212   -1.1862 H         1 UNK         0.2977 
    105 H105       26.9477   -0.4492   -5.2377 H         1 UNK         0.3127 
    106 H106       29.2610    1.1664   -5.5828 H         1 UNK         0.0770 
    107 H107       26.6261    1.9025   -4.1940 H         1 UNK         0.0814 
    108 H108       28.1876    2.6674   -3.9514 H         1 UNK         0.0814 
    109 H109       27.9397    1.0040   -3.4475 H         1 UNK         0.0814 
    110 H110       25.8370    1.7407   -6.5845 H         1 UNK         0.2983 
    111 H111       26.2488    4.2099   -7.8815 H         1 UNK         0.0947 
    112 H112       24.1210    2.0645   -8.3995 H         1 UNK         0.0806 
    113 H113       24.0289    3.7376   -8.9327 H         1 UNK         0.0806 
    114 H114       24.0119    3.3666   -7.2162 H         1 UNK         0.0806 
    115 H115       26.5742    0.8965   -9.1581 H         1 UNK         0.3000 
    116 H116       27.1231    1.6371  -11.8769 H         1 UNK         0.0850 
    117 H117       27.9295   -0.7235  -12.0440 H         1 UNK         0.0810 
    118 H118       26.3815   -0.6445  -11.2201 H         1 UNK         0.0810 
    119 H119       27.8628   -0.8851  -10.2949 H         1 UNK         0.0810 
    120 H120       29.0086    2.0638   -9.0582 H         1 UNK         0.3040 
    121 H121       31.0605    2.6627   -8.5691 H         1 UNK         0.0766 
    122 H122       31.3494    3.5235  -11.4955 H         1 UNK         0.0812 
    123 H123       32.3131    4.0883  -10.1399 H         1 UNK         0.0812 
    124 H124       30.6054    4.4889  -10.2208 H         1 UNK         0.0812 
    125 H125       30.7467   -0.0495   -8.9947 H         1 UNK         0.3205 
    126 H126       32.6651   -1.2628  -10.6662 H         1 UNK         0.0754 
    127 H127       32.1964   -3.2931   -9.2575 H         1 UNK         0.0769 
    128 H128       30.7214   -2.4643   -9.7320 H         1 UNK         0.0769 
    129 H129       31.3497   -2.2755   -8.0998 H         1 UNK         0.0769 
    130 H130       33.2106    0.3719   -7.6868 H         1 UNK         0.2981 
    131 H131       35.7690   -0.8463   -7.0423 H         1 UNK         0.0541 
    132 H132       36.4968    1.9851   -9.8301 H         1 UNK         0.3459 
    133 H133       34.8748    1.3826   -9.5887 H         1 UNK         0.3459 
    134 H134       34.4992    1.7509   -6.0223 H         1 UNK         0.0612 
    135 H135       35.9844    1.0614   -5.4210 H         1 UNK         0.0612 
    136 H136       32.3551    1.3453   -4.3519 H         1 UNK         0.0624 
    137 H137       32.2133    0.5940   -5.9236 H         1 UNK         0.0624 
@<TRIPOS>BOND
     1    1    2 1    
     2    1   72 1    
     3    1   73 1    
     4    1   74 1    
     5    2    3 2    
     6    2    4 am   BACKBONE|DICT|INTERRES
     7    4    5 1    
     8    4   75 1    
     9    5    6 1    
    10    5   35 1    
    11    5   76 1    
    12    6    7 1    
    13    6   77 1    
    14    6   78 1    
    15    7    8 1    
    16    8    9 1    
    17    8   79 1    
    18    8   80 1    
    19    9   10 ar   
    20    9   14 ar   
    21   10   11 ar   
    22   10   81 1    
    23   11   12 ar   
    24   11   71 1    
    25   12   13 ar   
    26   12   82 1    
    27   13   14 ar   
    28   13   15 1    
    29   14   83 1    
    30   15   16 1    
    31   15   84 1    
    32   15   85 1    
    33   16   17 1    
    34   17   18 1    
    35   17   86 1    
    36   17   87 1    
    37   18   19 1    
    38   18   37 1    
    39   18   88 1    
    40   19   20 am   BACKBONE|DICT|INTERRES
    41   19   89 1    
    42   20   21 2    
    43   20   22 1    
    44   22   23 1    
    45   22   24 1    
    46   22   90 1    
    47   23   91 1    
    48   23   92 1    
    49   23   93 1    
    50   24   25 am   BACKBONE|DICT|INTERRES
    51   24   94 1    
    52   25   26 2    
    53   25   27 1    
    54   27   28 1    
    55   27   29 1    
    56   27   95 1    
    57   28   96 1    
    58   28   97 1    
    59   28   98 1    
    60   29   30 am   BACKBONE|DICT|INTERRES
    61   29   99 1    
    62   30   31 2    
    63   30   32 1    
    64   32   33 1    
    65   32   34 1    
    66   32  100 1    
    67   33  101 1    
    68   33  102 1    
    69   33  103 1    
    70   34   35 am   BACKBONE|DICT|INTERRES
    71   34  104 1    
    72   35   36 2    
    73   37   38 2    
    74   37   39 am   BACKBONE|DICT|INTERRES
    75   39   40 1    
    76   39  105 1    
    77   40   41 1    
    78   40   42 1    
    79   40  106 1    
    80   41  107 1    
    81   41  108 1    
    82   41  109 1    
    83   42   43 2    
    84   42   44 am   BACKBONE|DICT|INTERRES
    85   44   45 1    
    86   44  110 1    
    87   45   46 1    
    88   45   47 1    
    89   45  111 1    
    90   46  112 1    
    91   46  113 1    
    92   46  114 1    
    93   47   48 2    
    94   47   49 am   BACKBONE|DICT|INTERRES
    95   49   50 1    
    96   49  115 1    
    97   50   51 1    
    98   50   52 1    
    99   50  116 1    
   100   51  117 1    
   101   51  118 1    
   102   51  119 1    
   103   52   53 2    
   104   52   54 am   BACKBONE|DICT|INTERRES
   105   54   55 1    
   106   54  120 1    
   107   55   56 1    
   108   55   57 1    
   109   55  121 1    
   110   56  122 1    
   111   56  123 1    
   112   56  124 1    
   113   57   58 2    
   114   57   59 am   BACKBONE|DICT|INTERRES
   115   59   60 1    
   116   59  125 1    
   117   60   61 1    
   118   60   62 1    
   119   60  126 1    
   120   61  127 1    
   121   61  128 1    
   122   61  129 1    
   123   62   63 2    
   124   62   64 am   BACKBONE|DICT|INTERRES
   125   64   65 1    
   126   64  130 1    
   127   65   66 1    
   128   65   69 1    
   129   65  131 1    
   130   66   67 am   BACKBONE|DICT|INTERRES
   131   66   68 2    
   132   67  132 1    
   133   67  133 1    
   134   69   70 1    
   135   69  134 1    
   136   69  135 1    
   137   70   71 1    
   138   71  136 1    
   139   71  137 1    
@<TRIPOS>SUBSTRUCTURE
     1 UNK         1 GROUP             0       ****    0 ROOT    
