@<TRIPOS>MOLECULE
3R137
137   139    1
SMALL
USER_CHARGES


@<TRIPOS>ATOM
      1 CA         24.8750   -4.3053   -2.0014 C.3       0 UNK        -0.2020 
      2 C          26.2398   -4.5564   -2.6331 C.2       0 UNK         0.4855 
      3 O          26.3640   -5.4587   -3.4573 O.2       0 UNK        -0.5197 
      4 N          27.2907   -3.8071   -2.2764 N.am      1 UNK        -0.4892 
      5 CA         27.3145   -2.7295   -1.2818 C.3       1 UNK         0.0835 
      6 C6         28.7059   -2.5764   -0.6142 C.3       12 UNK        -0.0855 
      7 S7         29.3361   -4.1678    0.0359 S.3       12 UNK        -0.2931 
      8 C8         30.9649   -4.3541   -0.7702 C.3       12 UNK         0.0378 
      9 C9         30.9527   -4.0310   -2.2602 C.ar      12 UNK        -0.0802 
     10 C10        31.6844   -2.9414   -2.7362 C.ar      12 UNK        -0.0944 
     11 C11        31.6983   -2.6184   -4.0946 C.ar      12 UNK        -0.0787 
     12 C12        30.9378   -3.3949   -4.9829 C.ar      12 UNK        -0.0862 
     13 C13        30.1959   -4.4927   -4.5224 C.ar      12 UNK        -0.0733 
     14 C14        30.2254   -4.8130   -3.1607 C.ar      12 UNK        -0.0832 
     15 C15        29.4013   -5.3881   -5.4743 C.3       12 UNK         0.0240 
     16 S16        28.5896   -4.5244   -6.8625 S.3       12 UNK        -0.2522 
     17 C17        27.3144   -3.5289   -6.0149 C.3       12 UNK        -0.0967 
     18 CA         26.9478   -2.2585   -6.8185 C.3       5 UNK         0.0660 
     19 N          25.6260   -1.7183   -6.4648 N.am      5 UNK        -0.4015 
     20 C          25.0365   -0.6662   -7.0518 C.2       4 UNK         0.4946 
     21 O          25.6160    0.1084   -7.8108 O.2       4 UNK        -0.5353 
     22 CA         23.5364   -0.4418   -6.8022 C.3       4 UNK         0.0277 
     23 CB         22.6870   -1.5267   -7.4944 C.3       4 UNK        -0.1981 
     24 N          23.1573   -0.2660   -5.3981 N.am      4 UNK        -0.4209 
     25 C          23.1978   -1.1576   -4.4021 C.2       3 UNK         0.4942 
     26 O          23.6351   -2.3054   -4.5110 O.2       3 UNK        -0.5208 
     27 CA         22.6833   -0.6574   -3.0423 C.3       3 UNK         0.0250 
     28 CB         21.8029   -1.7065   -2.3401 C.3       3 UNK        -0.1990 
     29 N          23.8103   -0.3054   -2.1838 N.am      3 UNK        -0.4232 
     30 C          24.6069    0.7578   -2.3655 C.2       2 UNK         0.4993 
     31 O          24.3907    1.6440   -3.1928 O.2       2 UNK        -0.5286 
     32 CA         25.8690    0.8355   -1.4893 C.3       2 UNK         0.0209 
     33 CB         25.6072    1.6924   -0.2402 C.3       2 UNK        -0.1931 
     34 N          26.3777   -0.4796   -1.0807 N.am      2 UNK        -0.4546 
     35 C          26.8715   -1.3999   -1.9216 C.2       1 UNK         0.5154 
     36 O          26.9842   -1.2262   -3.1393 O.2       1 UNK        -0.5181 
     37 C          28.0833   -1.2187   -6.7892 C.2       5 UNK         0.5014 
     38 O          28.7632   -1.0455   -7.8026 O.2       5 UNK        -0.5248 
     39 N          28.2418   -0.5187   -5.6573 N.am      6 UNK        -0.4434 
     40 CA         29.2771    0.5015   -5.4696 C.3       6 UNK         0.0363 
     41 CB         29.2744    0.9726   -4.0085 C.3       6 UNK        -0.1936 
     42 C          29.1641    1.7000   -6.4291 C.2       6 UNK         0.5081 
     43 O          30.1883    2.3006   -6.7548 O.2       6 UNK        -0.5248 
     44 N          27.9421    2.0175   -6.8766 N.am      7 UNK        -0.4718 
     45 CA         27.6791    3.0551   -7.8726 C.3       7 UNK         0.0273 
     46 CB         26.2499    3.5937   -7.6955 C.3       7 UNK        -0.1935 
     47 C          27.8983    2.5307   -9.2995 C.2       7 UNK         0.5018 
     48 O          28.5629    3.1996  -10.0900 O.2       7 UNK        -0.5186 
     49 N          27.3517    1.3434   -9.5984 N.am      8 UNK        -0.4240 
     50 CA         27.4036    0.6878  -10.9076 C.3       8 UNK         0.0235 
     51 CB         26.4812   -0.5425  -10.9044 C.3       8 UNK        -0.2000 
     52 C          28.8251    0.2969  -11.3372 C.2       8 UNK         0.4941 
     53 O          29.2001    0.5516  -12.4824 O.2       8 UNK        -0.5273 
     54 N          29.5956   -0.2916  -10.4126 N.am      9 UNK        -0.4262 
     55 CA         31.0036   -0.6418  -10.6201 C.3       9 UNK         0.0264 
     56 CB         31.3578   -1.8393   -9.7237 C.3       9 UNK        -0.1955 
     57 C          31.9571    0.5412  -10.3652 C.2       9 UNK         0.5031 
     58 O          33.1434    0.4256  -10.6748 O.2       9 UNK        -0.5390 
     59 N          31.4346    1.6405   -9.7982 N.am      10 UNK        -0.4204 
     60 CA         32.1163    2.8915   -9.4362 C.3       10 UNK         0.0237 
     61 CB         32.6522    3.6094  -10.6931 C.3       10 UNK        -0.1985 
     62 C          33.1909    2.7421   -8.3386 C.2       10 UNK         0.4970 
     63 O          34.0021    3.6526   -8.1598 O.2       10 UNK        -0.4914 
     64 N          33.1757    1.6164   -7.6157 N.am      11 UNK        -0.4285 
     65 CA         34.0689    1.3149   -6.4907 C.3       11 UNK         0.1007 
     66 C          33.6581    1.9688   -5.1404 C.2       11 UNK         0.5703 
     67 N          32.4825    2.5724   -5.0170 N.am      11 UNK        -0.7361 
     68 O          34.4343    1.9437   -4.1884 O.2       11 UNK        -0.4986 
     69 C69        34.3341   -0.2090   -6.3629 C.3       12 UNK        -0.0947 
     70 S70        32.8351   -1.2528   -6.3194 S.3       12 UNK        -0.2240 
     71 C71        32.5661   -1.4330   -4.5253 C.3       12 UNK         0.0194 
     72 H72        24.8586   -4.6501   -0.9680 H         1 UNK         0.0906 
     73 H73        24.6187   -3.2488   -2.0296 H         1 UNK         0.0906 
     74 H74        24.0992   -4.8411   -2.5484 H         1 UNK         0.0906 
     75 H75        28.1773   -3.9689   -2.7312 H         1 UNK         0.3140 
     76 H76        26.6055   -2.9753   -0.4890 H         1 UNK         0.1085 
     77 H77        29.4212   -2.1330   -1.3073 H         1 UNK         0.0836 
     78 H78        28.6468   -1.8803    0.2245 H         1 UNK         0.0836 
     79 H79        31.3118   -5.3787   -0.6298 H         1 UNK         0.0731 
     80 H80        31.6807   -3.7192   -0.2456 H         1 UNK         0.0731 
     81 H81        32.2584   -2.3411   -2.0430 H         1 UNK         0.1312 
     82 H82        30.9280   -3.1614   -6.0376 H         1 UNK         0.1406 
     83 H83        29.6749   -5.6697   -2.7935 H         1 UNK         0.1631 
     84 H84        28.6376   -5.9440   -4.9284 H         1 UNK         0.0717 
     85 H85        30.0834   -6.1319   -5.8876 H         1 UNK         0.0717 
     86 H86        26.4363   -4.1646   -5.8912 H         1 UNK         0.0934 
     87 H87        27.6464   -3.2699   -5.0089 H         1 UNK         0.0934 
     88 H88        26.8427   -2.5600   -7.8631 H         1 UNK         0.0739 
     89 H89        25.0710   -2.2402   -5.7914 H         1 UNK         0.3093 
     90 H90        23.2884    0.5062   -7.2830 H         1 UNK         0.0818 
     91 H91        21.6226   -1.3062   -7.4142 H         1 UNK         0.0819 
     92 H92        22.9252   -1.5862   -8.5573 H         1 UNK         0.0819 
     93 H93        22.8554   -2.5170   -7.0705 H         1 UNK         0.0819 
     94 H94        22.8642    0.6718   -5.1568 H         1 UNK         0.3041 
     95 H95        22.0729    0.2351   -3.1980 H         1 UNK         0.0784 
     96 H96        21.4142   -1.3286   -1.3943 H         1 UNK         0.0793 
     97 H97        20.9445   -1.9671   -2.9606 H         1 UNK         0.0793 
     98 H98        22.3431   -2.6302   -2.1347 H         1 UNK         0.0793 
     99 H99        24.0700   -0.9770   -1.4782 H         1 UNK         0.3024 
    100 H100       26.6420    1.3256   -2.0840 H         1 UNK         0.1171 
    101 H101       25.2497    2.6855   -0.5168 H         1 UNK         0.0786 
    102 H102       24.8535    1.2443    0.4085 H         1 UNK         0.0786 
    103 H103       26.5168    1.8302    0.3448 H         1 UNK         0.0786 
    104 H104       26.3395   -0.6863   -0.0923 H         1 UNK         0.2977 
    105 H105       27.6592   -0.7382   -4.8509 H         1 UNK         0.3127 
    106 H106       30.2371    0.0255   -5.6711 H         1 UNK         0.0770 
    107 H107       28.3231    1.4313   -3.7405 H         1 UNK         0.0814 
    108 H108       30.0547    1.7129   -3.8317 H         1 UNK         0.0814 
    109 H109       29.4564    0.1430   -3.3249 H         1 UNK         0.0814 
    110 H110       27.1635    1.4286   -6.6121 H         1 UNK         0.2983 
    111 H111       28.3714    3.8852   -7.7124 H         1 UNK         0.0947 
    112 H112       26.0396    4.3825   -8.4191 H         1 UNK         0.0806 
    113 H113       26.1088    4.0200   -6.7022 H         1 UNK         0.0806 
    114 H114       25.4985    2.8159   -7.8347 H         1 UNK         0.0806 
    115 H115       26.8022    0.8694   -8.8808 H         1 UNK         0.3000 
    116 H116       27.0208    1.3974  -11.6441 H         1 UNK         0.0850 
    117 H117       26.4906   -1.0427  -11.8737 H         1 UNK         0.0810 
    118 H118       25.4490   -0.2623  -10.6934 H         1 UNK         0.0810 
    119 H119       26.7873   -1.2731  -10.1544 H         1 UNK         0.0810 
    120 H120       29.2060   -0.4961   -9.4912 H         1 UNK         0.3040 
    121 H121       31.1466   -0.9499  -11.6580 H         1 UNK         0.0766 
    122 H122       31.1965   -1.6129   -8.6709 H         1 UNK         0.0812 
    123 H123       32.4036   -2.1266   -9.8406 H         1 UNK         0.0812 
    124 H124       30.7514   -2.7109   -9.9701 H         1 UNK         0.0812 
    125 H125       30.4444    1.6249   -9.5951 H         1 UNK         0.3205 
    126 H126       31.3439    3.5289   -9.0032 H         1 UNK         0.0754 
    127 H127       33.0165    4.6083  -10.4500 H         1 UNK         0.0769 
    128 H128       31.8706    3.7265  -11.4440 H         1 UNK         0.0769 
    129 H129       33.4790    3.0647  -11.1498 H         1 UNK         0.0769 
    130 H130       32.4561    0.9337   -7.7987 H         1 UNK         0.2981 
    131 H131       35.0356    1.7648   -6.7247 H         1 UNK         0.0541 
    132 H132       31.8094    2.5682   -5.7777 H         1 UNK         0.3459 
    133 H133       32.2483    3.0101   -4.1414 H         1 UNK         0.3459 
    134 H134       34.9694   -0.4285   -5.5032 H         1 UNK         0.0612 
    135 H135       34.9113   -0.5340   -7.2298 H         1 UNK         0.0612 
    136 H136       32.1219   -0.5128   -4.1441 H         1 UNK         0.0624 
    137 H137       33.5388   -1.5313   -4.0413 H         1 UNK         0.0624 
@<TRIPOS>BOND
     1    1    2 1    
     2    1   72 1    
     3    1   73 1    
     4    1   74 1    
     5    2    3 2    
     6    2    4 am   BACKBONE|DICT|INTERRES
     7    4    5 1    
     8    4   75 1    
     9    5    6 1    
    10    5   35 1    
    11    5   76 1    
    12    6    7 1    
    13    6   77 1    
    14    6   78 1    
    15    7    8 1    
    16    8    9 1    
    17    8   79 1    
    18    8   80 1    
    19    9   10 ar   
    20    9   14 ar   
    21   10   11 ar   
    22   10   81 1    
    23   11   12 ar   
    24   11   71 1    
    25   12   13 ar   
    26   12   82 1    
    27   13   14 ar   
    28   13   15 1    
    29   14   83 1    
    30   15   16 1    
    31   15   84 1    
    32   15   85 1    
    33   16   17 1    
    34   17   18 1    
    35   17   86 1    
    36   17   87 1    
    37   18   19 1    
    38   18   37 1    
    39   18   88 1    
    40   19   20 am   BACKBONE|DICT|INTERRES
    41   19   89 1    
    42   20   21 2    
    43   20   22 1    
    44   22   23 1    
    45   22   24 1    
    46   22   90 1    
    47   23   91 1    
    48   23   92 1    
    49   23   93 1    
    50   24   25 am   BACKBONE|DICT|INTERRES
    51   24   94 1    
    52   25   26 2    
    53   25   27 1    
    54   27   28 1    
    55   27   29 1    
    56   27   95 1    
    57   28   96 1    
    58   28   97 1    
    59   28   98 1    
    60   29   30 am   BACKBONE|DICT|INTERRES
    61   29   99 1    
    62   30   31 2    
    63   30   32 1    
    64   32   33 1    
    65   32   34 1    
    66   32  100 1    
    67   33  101 1    
    68   33  102 1    
    69   33  103 1    
    70   34   35 am   BACKBONE|DICT|INTERRES
    71   34  104 1    
    72   35   36 2    
    73   37   38 2    
    74   37   39 am   BACKBONE|DICT|INTERRES
    75   39   40 1    
    76   39  105 1    
    77   40   41 1    
    78   40   42 1    
    79   40  106 1    
    80   41  107 1    
    81   41  108 1    
    82   41  109 1    
    83   42   43 2    
    84   42   44 am   BACKBONE|DICT|INTERRES
    85   44   45 1    
    86   44  110 1    
    87   45   46 1    
    88   45   47 1    
    89   45  111 1    
    90   46  112 1    
    91   46  113 1    
    92   46  114 1    
    93   47   48 2    
    94   47   49 am   BACKBONE|DICT|INTERRES
    95   49   50 1    
    96   49  115 1    
    97   50   51 1    
    98   50   52 1    
    99   50  116 1    
   100   51  117 1    
   101   51  118 1    
   102   51  119 1    
   103   52   53 2    
   104   52   54 am   BACKBONE|DICT|INTERRES
   105   54   55 1    
   106   54  120 1    
   107   55   56 1    
   108   55   57 1    
   109   55  121 1    
   110   56  122 1    
   111   56  123 1    
   112   56  124 1    
   113   57   58 2    
   114   57   59 am   BACKBONE|DICT|INTERRES
   115   59   60 1    
   116   59  125 1    
   117   60   61 1    
   118   60   62 1    
   119   60  126 1    
   120   61  127 1    
   121   61  128 1    
   122   61  129 1    
   123   62   63 2    
   124   62   64 am   BACKBONE|DICT|INTERRES
   125   64   65 1    
   126   64  130 1    
   127   65   66 1    
   128   65   69 1    
   129   65  131 1    
   130   66   67 am   BACKBONE|DICT|INTERRES
   131   66   68 2    
   132   67  132 1    
   133   67  133 1    
   134   69   70 1    
   135   69  134 1    
   136   69  135 1    
   137   70   71 1    
   138   71  136 1    
   139   71  137 1    
@<TRIPOS>SUBSTRUCTURE
     1 UNK         1 GROUP             0       ****    0 ROOT    
