@<TRIPOS>MOLECULE
3R137
137   139    1
SMALL
USER_CHARGES


@<TRIPOS>ATOM
      1 CA         26.7509   -6.2420    0.8005 C.3       0 UNK        -0.2020 
      2 C          27.0194   -4.9415    0.0592 C.2       0 UNK         0.4855 
      3 O          27.0297   -3.8740    0.6740 O.2       0 UNK        -0.5197 
      4 N          27.2412   -5.0160   -1.2588 N.am      1 UNK        -0.4892 
      5 CA         27.4867   -3.8646   -2.1309 C.3       1 UNK         0.0835 
      6 C6         28.3179   -4.2426   -3.3860 C.3       12 UNK        -0.0855 
      7 S7         29.8781   -5.1450   -3.0733 S.3       12 UNK        -0.2931 
      8 C8         30.6891   -4.2137   -1.7318 C.3       12 UNK         0.0378 
      9 C9         31.0793   -2.8004   -2.1442 C.ar      12 UNK        -0.0802 
     10 C10        32.0800   -2.5945   -3.0992 C.ar      12 UNK        -0.0944 
     11 C11        32.4842   -1.2990   -3.4375 C.ar      12 UNK        -0.0787 
     12 C12        31.8659   -0.2036   -2.8269 C.ar      12 UNK        -0.0862 
     13 C13        30.8574   -0.3971   -1.8780 C.ar      12 UNK        -0.0733 
     14 C14        30.4785   -1.6967   -1.5321 C.ar      12 UNK        -0.0832 
     15 C15        30.1989    0.7936   -1.1957 C.3       12 UNK         0.0240 
     16 S16        29.2424    1.8246   -2.3512 S.3       12 UNK        -0.2522 
     17 C17        27.9434    0.6858   -2.9484 C.3       12 UNK        -0.0967 
     18 CA         27.7895    0.7488   -4.4897 C.3       5 UNK         0.0660 
     19 N          27.0408   -0.3880   -5.0302 N.am      5 UNK        -0.4015 
     20 C          27.0705   -0.7585   -6.3200 C.2       4 UNK         0.4946 
     21 O          27.8361   -0.2703   -7.1522 O.2       4 UNK        -0.5353 
     22 CA         26.0506   -1.8154   -6.7799 C.3       4 UNK         0.0277 
     23 CB         26.6765   -3.2168   -6.8133 C.3       4 UNK        -0.1981 
     24 N          24.8396   -1.8340   -5.9543 N.am      4 UNK        -0.4209 
     25 C          23.8829   -0.8964   -6.0250 C.2       3 UNK         0.4942 
     26 O          23.9193    0.0492   -6.8092 O.2       3 UNK        -0.5208 
     27 CA         22.7121   -0.9872   -5.0313 C.3       3 UNK         0.0250 
     28 CB         21.5748   -1.8363   -5.6199 C.3       3 UNK        -0.1990 
     29 N          23.0822   -1.5122   -3.7155 N.am      3 UNK        -0.4232 
     30 C          24.0189   -0.9993   -2.9057 C.2       2 UNK         0.4993 
     31 O          24.6940   -0.0067   -3.1858 O.2       2 UNK        -0.5286 
     32 CA         24.2920   -1.7456   -1.5855 C.3       2 UNK         0.0209 
     33 CB         23.2027   -2.7766   -1.2113 C.3       2 UNK        -0.1931 
     34 N          25.6093   -2.3960   -1.5627 N.am      2 UNK        -0.4546 
     35 C          26.1413   -3.2035   -2.4938 C.2       1 UNK         0.5154 
     36 O          25.5990   -3.4649   -3.5699 O.2       1 UNK        -0.5181 
     37 C          27.1340    2.0660   -4.9495 C.2       5 UNK         0.5014 
     38 O          27.8324    2.9429   -5.4577 O.2       5 UNK        -0.5248 
     39 N          25.8020    2.1611   -4.8062 N.am      6 UNK        -0.4434 
     40 CA         24.9936    3.3148   -5.2164 C.3       6 UNK         0.0363 
     41 CB         23.5352    3.1045   -4.7804 C.3       6 UNK        -0.1936 
     42 C          25.0741    3.6154   -6.7245 C.2       6 UNK         0.5081 
     43 O          25.1913    4.7806   -7.1042 O.2       6 UNK        -0.5248 
     44 N          25.0434    2.5628   -7.5531 N.am      7 UNK        -0.4718 
     45 CA         25.2277    2.6374   -9.0056 C.3       7 UNK         0.0273 
     46 CB         24.6775    1.3519   -9.6456 C.3       7 UNK        -0.1935 
     47 C          26.6914    2.8538   -9.4344 C.2       7 UNK         0.5018 
     48 O          26.9187    3.1863  -10.5982 O.2       7 UNK        -0.5186 
     49 N          27.6422    2.6478   -8.5088 N.am      8 UNK        -0.4240 
     50 CA         29.0974    2.6937   -8.6844 C.3       8 UNK         0.0235 
     51 CB         29.5714    4.1364   -8.9595 C.3       8 UNK        -0.2000 
     52 C          29.5752    1.6861   -9.7448 C.2       8 UNK         0.4941 
     53 O          30.1645    2.0781  -10.7556 O.2       8 UNK        -0.5273 
     54 N          29.2858    0.3993   -9.5064 N.am      9 UNK        -0.4262 
     55 CA         29.5699   -0.7330  -10.3952 C.3       9 UNK         0.0264 
     56 CB         28.7374   -1.9416   -9.9323 C.3       9 UNK        -0.1955 
     57 C          31.0733   -1.0671  -10.5068 C.2       9 UNK         0.5031 
     58 O          31.4957   -2.1644  -10.1335 O.2       9 UNK        -0.5390 
     59 N          31.8501   -0.1071  -11.0229 N.am      10 UNK        -0.4204 
     60 CA         33.2892   -0.1119  -11.3130 C.3       10 UNK         0.0237 
     61 CB         33.6554   -1.1963  -12.3459 C.3       10 UNK        -0.1985 
     62 C          34.2003   -0.1916  -10.0759 C.2       10 UNK         0.4970 
     63 O          35.1089    0.6323   -9.9595 O.2       10 UNK        -0.4914 
     64 N          33.9545   -1.1682   -9.1929 N.am      11 UNK        -0.4285 
     65 CA         34.7718   -1.5103   -8.0159 C.3       11 UNK         0.1007 
     66 C          36.2300   -1.9405   -8.3804 C.2       11 UNK         0.5703 
     67 N          37.1343   -2.0293   -7.4134 N.am      11 UNK        -0.7361 
     68 O          36.5444   -2.2614   -9.5259 O.2       11 UNK        -0.4986 
     69 C69        34.6772   -0.4211   -6.9028 C.3       12 UNK        -0.0947 
     70 S70        33.0724   -0.4758   -6.0344 S.3       12 UNK        -0.2240 
     71 C71        33.6313   -1.0837   -4.4124 C.3       12 UNK         0.0194 
     72 H72        25.7676   -6.2100    1.2689 H         1 UNK         0.0906 
     73 H73        26.7826   -7.1048    0.1354 H         1 UNK         0.0906 
     74 H74        27.4962   -6.3887    1.5817 H         1 UNK         0.0906 
     75 H75        27.2140   -5.9137   -1.7221 H         1 UNK         0.3140 
     76 H76        28.0547   -3.1200   -1.5762 H         1 UNK         0.1085 
     77 H77        28.5615   -3.3437   -3.9561 H         1 UNK         0.0836 
     78 H78        27.7292   -4.8764   -4.0515 H         1 UNK         0.0836 
     79 H79        31.5921   -4.7515   -1.4396 H         1 UNK         0.0731 
     80 H80        30.0514   -4.2086   -0.8471 H         1 UNK         0.0731 
     81 H81        32.5588   -3.4475   -3.5610 H         1 UNK         0.1312 
     82 H82        32.1760    0.8004   -3.0836 H         1 UNK         0.1406 
     83 H83        29.7280   -1.8449   -0.7682 H         1 UNK         0.1631 
     84 H84        30.9718    1.4095   -0.7340 H         1 UNK         0.0717 
     85 H85        29.5427    0.4704   -0.3859 H         1 UNK         0.0717 
     86 H86        28.1940   -0.3316   -2.6487 H         1 UNK         0.0934 
     87 H87        27.0090    0.9231   -2.4373 H         1 UNK         0.0934 
     88 H88        28.7919    0.7089   -4.9235 H         1 UNK         0.0739 
     89 H89        26.3272   -0.7807   -4.4306 H         1 UNK         0.3093 
     90 H90        25.7633   -1.5589   -7.8020 H         1 UNK         0.0818 
     91 H91        27.5713   -3.2358   -7.4342 H         1 UNK         0.0819 
     92 H92        26.9670   -3.5521   -5.8210 H         1 UNK         0.0819 
     93 H93        25.9827   -3.9503   -7.2242 H         1 UNK         0.0819 
     94 H94        24.7810   -2.5534   -5.2396 H         1 UNK         0.3041 
     95 H95        22.3348    0.0254   -4.8788 H         1 UNK         0.0784 
     96 H96        21.2642   -1.4513   -6.5925 H         1 UNK         0.0793 
     97 H97        21.8771   -2.8748   -5.7619 H         1 UNK         0.0793 
     98 H98        20.6960   -1.8263   -4.9749 H         1 UNK         0.0793 
     99 H99        22.6062   -2.3499   -3.4138 H         1 UNK         0.3024 
    100 H100       24.3043   -0.9789   -0.8088 H         1 UNK         0.1171 
    101 H101       23.3846   -3.1875   -0.2180 H         1 UNK         0.0786 
    102 H102       22.2124   -2.3192   -1.1865 H         1 UNK         0.0786 
    103 H103       23.1703   -3.6159   -1.9073 H         1 UNK         0.0786 
    104 H104       26.1229   -2.2993   -0.6947 H         1 UNK         0.2977 
    105 H105       25.3117    1.3997   -4.3425 H         1 UNK         0.3127 
    106 H106       25.3837    4.1863   -4.6865 H         1 UNK         0.0770 
    107 H107       23.0782    2.2611   -5.2975 H         1 UNK         0.0814 
    108 H108       22.9327    3.9861   -5.0029 H         1 UNK         0.0814 
    109 H109       23.4612    2.9222   -3.7081 H         1 UNK         0.0814 
    110 H110       24.8460    1.6407   -7.1690 H         1 UNK         0.2983 
    111 H111       24.6496    3.4833   -9.3841 H         1 UNK         0.0947 
    112 H112       24.7536    1.3904  -10.7331 H         1 UNK         0.0806 
    113 H113       23.6256    1.2047   -9.4000 H         1 UNK         0.0806 
    114 H114       25.2263    0.4707   -9.3108 H         1 UNK         0.0806 
    115 H115       27.3355    2.3973   -7.5773 H         1 UNK         0.3000 
    116 H116       29.5333    2.3779   -7.7350 H         1 UNK         0.0850 
    117 H117       30.6598    4.1850   -9.0091 H         1 UNK         0.0810 
    118 H118       29.2516    4.8137   -8.1675 H         1 UNK         0.0810 
    119 H119       29.1860    4.5195   -9.9048 H         1 UNK         0.0810 
    120 H120       28.7975    0.1718   -8.6396 H         1 UNK         0.3040 
    121 H121       29.2286   -0.4639  -11.3970 H         1 UNK         0.0766 
    122 H122       27.6739   -1.7050   -9.8955 H         1 UNK         0.0812 
    123 H123       29.0440   -2.2722   -8.9398 H         1 UNK         0.0812 
    124 H124       28.8601   -2.7865  -10.6112 H         1 UNK         0.0812 
    125 H125       31.3798    0.7830  -11.1882 H         1 UNK         0.3205 
    126 H126       33.4880    0.8546  -11.7792 H         1 UNK         0.0754 
    127 H127       34.7107   -1.1347  -12.6155 H         1 UNK         0.0769 
    128 H128       33.0790   -1.0798  -13.2637 H         1 UNK         0.0769 
    129 H129       33.4789   -2.2025  -11.9647 H         1 UNK         0.0769 
    130 H130       33.1648   -1.7785   -9.3890 H         1 UNK         0.2981 
    131 H131       34.3290   -2.4266   -7.6240 H         1 UNK         0.0541 
    132 H132       36.9041   -1.8070   -6.4582 H         1 UNK         0.3459 
    133 H133       38.0677   -2.3303   -7.6466 H         1 UNK         0.3459 
    134 H134       34.8148    0.5783   -7.3164 H         1 UNK         0.0612 
    135 H135       35.4653   -0.5294   -6.1582 H         1 UNK         0.0612 
    136 H136       34.1869   -2.0122   -4.5542 H         1 UNK         0.0624 
    137 H137       34.3335   -0.3669   -3.9841 H         1 UNK         0.0624 
@<TRIPOS>BOND
     1    1    2 1    
     2    1   72 1    
     3    1   73 1    
     4    1   74 1    
     5    2    3 2    
     6    2    4 am   BACKBONE|DICT|INTERRES
     7    4    5 1    
     8    4   75 1    
     9    5    6 1    
    10    5   35 1    
    11    5   76 1    
    12    6    7 1    
    13    6   77 1    
    14    6   78 1    
    15    7    8 1    
    16    8    9 1    
    17    8   79 1    
    18    8   80 1    
    19    9   10 ar   
    20    9   14 ar   
    21   10   11 ar   
    22   10   81 1    
    23   11   12 ar   
    24   11   71 1    
    25   12   13 ar   
    26   12   82 1    
    27   13   14 ar   
    28   13   15 1    
    29   14   83 1    
    30   15   16 1    
    31   15   84 1    
    32   15   85 1    
    33   16   17 1    
    34   17   18 1    
    35   17   86 1    
    36   17   87 1    
    37   18   19 1    
    38   18   37 1    
    39   18   88 1    
    40   19   20 am   BACKBONE|DICT|INTERRES
    41   19   89 1    
    42   20   21 2    
    43   20   22 1    
    44   22   23 1    
    45   22   24 1    
    46   22   90 1    
    47   23   91 1    
    48   23   92 1    
    49   23   93 1    
    50   24   25 am   BACKBONE|DICT|INTERRES
    51   24   94 1    
    52   25   26 2    
    53   25   27 1    
    54   27   28 1    
    55   27   29 1    
    56   27   95 1    
    57   28   96 1    
    58   28   97 1    
    59   28   98 1    
    60   29   30 am   BACKBONE|DICT|INTERRES
    61   29   99 1    
    62   30   31 2    
    63   30   32 1    
    64   32   33 1    
    65   32   34 1    
    66   32  100 1    
    67   33  101 1    
    68   33  102 1    
    69   33  103 1    
    70   34   35 am   BACKBONE|DICT|INTERRES
    71   34  104 1    
    72   35   36 2    
    73   37   38 2    
    74   37   39 am   BACKBONE|DICT|INTERRES
    75   39   40 1    
    76   39  105 1    
    77   40   41 1    
    78   40   42 1    
    79   40  106 1    
    80   41  107 1    
    81   41  108 1    
    82   41  109 1    
    83   42   43 2    
    84   42   44 am   BACKBONE|DICT|INTERRES
    85   44   45 1    
    86   44  110 1    
    87   45   46 1    
    88   45   47 1    
    89   45  111 1    
    90   46  112 1    
    91   46  113 1    
    92   46  114 1    
    93   47   48 2    
    94   47   49 am   BACKBONE|DICT|INTERRES
    95   49   50 1    
    96   49  115 1    
    97   50   51 1    
    98   50   52 1    
    99   50  116 1    
   100   51  117 1    
   101   51  118 1    
   102   51  119 1    
   103   52   53 2    
   104   52   54 am   BACKBONE|DICT|INTERRES
   105   54   55 1    
   106   54  120 1    
   107   55   56 1    
   108   55   57 1    
   109   55  121 1    
   110   56  122 1    
   111   56  123 1    
   112   56  124 1    
   113   57   58 2    
   114   57   59 am   BACKBONE|DICT|INTERRES
   115   59   60 1    
   116   59  125 1    
   117   60   61 1    
   118   60   62 1    
   119   60  126 1    
   120   61  127 1    
   121   61  128 1    
   122   61  129 1    
   123   62   63 2    
   124   62   64 am   BACKBONE|DICT|INTERRES
   125   64   65 1    
   126   64  130 1    
   127   65   66 1    
   128   65   69 1    
   129   65  131 1    
   130   66   67 am   BACKBONE|DICT|INTERRES
   131   66   68 2    
   132   67  132 1    
   133   67  133 1    
   134   69   70 1    
   135   69  134 1    
   136   69  135 1    
   137   70   71 1    
   138   71  136 1    
   139   71  137 1    
@<TRIPOS>SUBSTRUCTURE
     1 UNK         1 GROUP             0       ****    0 ROOT    
