@<TRIPOS>MOLECULE
3R137
137   139    1
SMALL
USER_CHARGES


@<TRIPOS>ATOM
      1 CA         27.5033    1.3317    1.4451 C.3       0 UNK        -0.2020 
      2 C          27.5700   -0.0845    0.8945 C.2       0 UNK         0.4855 
      3 O          26.8535   -0.9621    1.3781 O.2       0 UNK        -0.5197 
      4 N          28.4191   -0.3118   -0.1179 N.am      1 UNK        -0.4892 
      5 CA         28.6526   -1.5793   -0.8280 C.3       1 UNK         0.0835 
      6 C6         29.0952   -2.7498    0.1014 C.3       12 UNK        -0.0855 
      7 S7         30.5617   -3.6462   -0.5024 S.3       12 UNK        -0.2931 
      8 C8         29.8652   -4.7577   -1.7781 C.3       12 UNK         0.0378 
      9 C9         30.1493   -4.3381   -3.2233 C.ar      12 UNK        -0.0802 
     10 C10        31.2639   -3.5583   -3.5666 C.ar      12 UNK        -0.0944 
     11 C11        31.5309   -3.2388   -4.8995 C.ar      12 UNK        -0.0787 
     12 C12        30.6718   -3.7022   -5.8964 C.ar      12 UNK        -0.0862 
     13 C13        29.5575   -4.4848   -5.5845 C.ar      12 UNK        -0.0733 
     14 C14        29.3080   -4.8038   -4.2429 C.ar      12 UNK        -0.0832 
     15 C15        28.6997   -5.0124   -6.7372 C.3       12 UNK         0.0240 
     16 S16        26.9313   -5.2966   -6.3763 S.3       12 UNK        -0.2522 
     17 C17        26.3528   -3.6896   -5.7438 C.3       12 UNK        -0.0967 
     18 CA         26.2150   -2.5737   -6.8127 C.3       5 UNK         0.0660 
     19 N          25.0502   -1.7188   -6.5571 N.am      5 UNK        -0.4015 
     20 C          24.6187   -0.7435   -7.3726 C.2       4 UNK         0.4946 
     21 O          25.1182   -0.4927   -8.4682 O.2       4 UNK        -0.5353 
     22 CA         23.4515    0.1307   -6.8835 C.3       4 UNK         0.0277 
     23 CB         22.1142   -0.4333   -7.3887 C.3       4 UNK        -0.1981 
     24 N          23.3905    0.2925   -5.4309 N.am      4 UNK        -0.4209 
     25 C          24.3634    0.7734   -4.6434 C.2       3 UNK         0.4942 
     26 O          25.4541    1.1714   -5.0558 O.2       3 UNK        -0.5208 
     27 CA         24.0727    0.7838   -3.1316 C.3       3 UNK         0.0250 
     28 CB         22.5728    0.9494   -2.7999 C.3       3 UNK        -0.1990 
     29 N          24.6098   -0.3866   -2.4260 N.am      3 UNK        -0.4232 
     30 C          24.4818   -1.6875   -2.7379 C.2       2 UNK         0.4993 
     31 O          23.9506   -2.1093   -3.7680 O.2       2 UNK        -0.5286 
     32 CA         25.0414   -2.6792   -1.6975 C.3       2 UNK         0.0209 
     33 CB         25.1677   -4.1261   -2.2207 C.3       2 UNK        -0.1931 
     34 N          26.3051   -2.2419   -1.0925 N.am      2 UNK        -0.4546 
     35 C          27.4562   -1.9652   -1.7214 C.2       1 UNK         0.5154 
     36 O          27.5858   -1.9770   -2.9434 O.2       1 UNK        -0.5181 
     37 C          27.4991   -1.7264   -6.9273 C.2       5 UNK         0.5014 
     38 O          28.1544   -1.7419   -7.9722 O.2       5 UNK        -0.5248 
     39 N          27.8016   -0.9621   -5.8673 N.am      6 UNK        -0.4434 
     40 CA         28.9413   -0.0494   -5.8119 C.3       6 UNK         0.0363 
     41 CB         29.1210    0.4995   -4.3888 C.3       6 UNK        -0.1936 
     42 C          28.8610    1.0981   -6.8245 C.2       6 UNK         0.5081 
     43 O          29.8983    1.4909   -7.3574 O.2       6 UNK        -0.5248 
     44 N          27.6468    1.5995   -7.0917 N.am      7 UNK        -0.4718 
     45 CA         27.3908    2.6250   -8.1055 C.3       7 UNK         0.0273 
     46 CB         25.9459    3.1320   -7.9879 C.3       7 UNK        -0.1935 
     47 C          27.6830    2.1319   -9.5330 C.2       7 UNK         0.5018 
     48 O          28.3115    2.8617  -10.2997 O.2       7 UNK        -0.5186 
     49 N          27.2514    0.9030   -9.8563 N.am      8 UNK        -0.4240 
     50 CA         27.5117    0.2464  -11.1402 C.3       8 UNK         0.0235 
     51 CB         26.6293   -1.0046  -11.2775 C.3       8 UNK        -0.2000 
     52 C          28.9932   -0.1131  -11.3313 C.2       8 UNK         0.4941 
     53 O          29.5258    0.0901  -12.4232 O.2       8 UNK        -0.5273 
     54 N          29.6344   -0.6253  -10.2710 N.am      9 UNK        -0.4262 
     55 CA         31.0630   -0.9555  -10.2556 C.3       9 UNK         0.0264 
     56 CB         31.3543   -1.8568   -9.0490 C.3       9 UNK        -0.1955 
     57 C          31.9838    0.2777  -10.2308 C.2       9 UNK         0.5031 
     58 O          33.1373    0.1688  -10.6488 O.2       9 UNK        -0.5390 
     59 N          31.4675    1.4065   -9.7243 N.am      10 UNK        -0.4204 
     60 CA         32.1472    2.6827   -9.4818 C.3       10 UNK         0.0237 
     61 CB         32.6377    3.3188  -10.8004 C.3       10 UNK        -0.1985 
     62 C          33.2463    2.5816   -8.4047 C.2       10 UNK         0.4970 
     63 O          34.2356    3.3136   -8.4745 O.2       10 UNK        -0.4914 
     64 N          33.0519    1.6895   -7.4228 N.am      11 UNK        -0.4285 
     65 CA         33.9548    1.5038   -6.2747 C.3       11 UNK         0.1007 
     66 C          33.6933    2.4842   -5.0938 C.2       11 UNK         0.5703 
     67 N          32.6144    3.2598   -5.0998 N.am      11 UNK        -0.7361 
     68 O          34.4959    2.5567   -4.1660 O.2       11 UNK        -0.4986 
     69 C69        34.0251    0.0202   -5.8208 C.3       12 UNK        -0.0947 
     70 S70        32.4465   -0.6457   -5.1997 S.3       12 UNK        -0.2240 
     71 C71        32.7682   -2.4317   -5.2700 C.3       12 UNK         0.0194 
     72 H72        27.7670    1.3347    2.5025 H         1 UNK         0.0906 
     73 H73        28.1831    2.0062    0.9246 H         1 UNK         0.0906 
     74 H74        26.4922    1.7257    1.3456 H         1 UNK         0.0906 
     75 H75        28.9589    0.4669   -0.4717 H         1 UNK         0.3140 
     76 H76        29.4758   -1.3609   -1.5108 H         1 UNK         0.1085 
     77 H77        29.3763   -2.3609    1.0813 H         1 UNK         0.0836 
     78 H78        28.2917   -3.4596    0.3080 H         1 UNK         0.0836 
     79 H79        30.2898   -5.7511   -1.6284 H         1 UNK         0.0731 
     80 H80        28.7899   -4.8602   -1.6235 H         1 UNK         0.0731 
     81 H81        31.9456   -3.2096   -2.8042 H         1 UNK         0.1312 
     82 H82        30.8869   -3.4724   -6.9277 H         1 UNK         0.1406 
     83 H83        28.4632   -5.4296   -3.9903 H         1 UNK         0.1631 
     84 H84        29.1297   -5.9582   -7.0688 H         1 UNK         0.0717 
     85 H85        28.7654   -4.3403   -7.5936 H         1 UNK         0.0717 
     86 H86        26.9803   -3.3861   -4.9082 H         1 UNK         0.0934 
     87 H87        25.3764   -3.8953   -5.3027 H         1 UNK         0.0934 
     88 H88        26.0427   -3.0405   -7.7850 H         1 UNK         0.0739 
     89 H89        24.5873   -1.8362   -5.6599 H         1 UNK         0.3093 
     90 H90        23.5810    1.1251   -7.3112 H         1 UNK         0.0818 
     91 H91        21.2835    0.2268   -7.1382 H         1 UNK         0.0819 
     92 H92        22.1224   -0.5419   -8.4743 H         1 UNK         0.0819 
     93 H93        21.9041   -1.4160   -6.9643 H         1 UNK         0.0819 
     94 H94        22.5561   -0.0502   -4.9772 H         1 UNK         0.3041 
     95 H95        24.5947    1.6545   -2.7315 H         1 UNK         0.0784 
     96 H96        22.1402    1.7970   -3.3337 H         1 UNK         0.0793 
     97 H97        21.9906    0.0625   -3.0529 H         1 UNK         0.0793 
     98 H98        22.4296    1.1382   -1.7359 H         1 UNK         0.0793 
     99 H99        25.1178   -0.1763   -1.5788 H         1 UNK         0.3024 
    100 H100       24.3040   -2.6932   -0.8931 H         1 UNK         0.1171 
    101 H101       25.4054   -4.8143   -1.4097 H         1 UNK         0.0786 
    102 H102       25.9511   -4.2227   -2.9699 H         1 UNK         0.0786 
    103 H103       24.2359   -4.4715   -2.6703 H         1 UNK         0.0786 
    104 H104       26.2977   -2.0947   -0.0855 H         1 UNK         0.2977 
    105 H105       27.2402   -1.0317   -5.0278 H         1 UNK         0.3127 
    106 H106       29.8203   -0.6376   -6.0709 H         1 UNK         0.0770 
    107 H107       28.2010    0.9412   -4.0040 H         1 UNK         0.0814 
    108 H108       29.8958    1.2672   -4.3581 H         1 UNK         0.0814 
    109 H109       29.4351   -0.2900   -3.7081 H         1 UNK         0.0814 
    110 H110       26.8531    1.2601   -6.5565 H         1 UNK         0.2983 
    111 H111       28.0611    3.4627   -7.9001 H         1 UNK         0.0947 
    112 H112       25.7810    3.9857   -8.6465 H         1 UNK         0.0806 
    113 H113       25.7151    3.4541   -6.9722 H         1 UNK         0.0806 
    114 H114       25.2279    2.3639   -8.2709 H         1 UNK         0.0806 
    115 H115       26.6960    0.3790   -9.1837 H         1 UNK         0.3000 
    116 H116       27.2358    0.9437  -11.9343 H         1 UNK         0.0850 
    117 H117       26.8078   -1.5085  -12.2283 H         1 UNK         0.0810 
    118 H118       25.5707   -0.7470  -11.2403 H         1 UNK         0.0810 
    119 H119       26.8241   -1.7252  -10.4819 H         1 UNK         0.0810 
    120 H120       29.1024   -0.8301   -9.4276 H         1 UNK         0.3040 
    121 H121       31.2932   -1.5173  -11.1634 H         1 UNK         0.0766 
    122 H122       32.4087   -2.1335   -9.0072 H         1 UNK         0.0812 
    123 H123       31.1074   -1.3602   -8.1097 H         1 UNK         0.0812 
    124 H124       30.7765   -2.7790   -9.1086 H         1 UNK         0.0812 
    125 H125       30.5355    1.3509   -9.3274 H         1 UNK         0.3205 
    126 H126       31.3860    3.3446   -9.0661 H         1 UNK         0.0754 
    127 H127       32.9954    4.3356  -10.6347 H         1 UNK         0.0769 
    128 H128       31.8336    3.3751  -11.5344 H         1 UNK         0.0769 
    129 H129       33.4587    2.7546  -11.2436 H         1 UNK         0.0769 
    130 H130       32.1804    1.1764   -7.3957 H         1 UNK         0.2981 
    131 H131       34.9629    1.7495   -6.6138 H         1 UNK         0.0541 
    132 H132       31.9462    3.1977   -5.8510 H         1 UNK         0.3459 
    133 H133       32.4606    3.8970   -4.3348 H         1 UNK         0.3459 
    134 H134       34.7815   -0.1069   -5.0443 H         1 UNK         0.0612 
    135 H135       34.3541   -0.5949   -6.6598 H         1 UNK         0.0612 
    136 H136       33.1015   -2.6990   -6.2740 H         1 UNK         0.0624 
    137 H137       33.5905   -2.6753   -4.5956 H         1 UNK         0.0624 
@<TRIPOS>BOND
     1    1    2 1    
     2    1   72 1    
     3    1   73 1    
     4    1   74 1    
     5    2    3 2    
     6    2    4 am   BACKBONE|DICT|INTERRES
     7    4    5 1    
     8    4   75 1    
     9    5    6 1    
    10    5   35 1    
    11    5   76 1    
    12    6    7 1    
    13    6   77 1    
    14    6   78 1    
    15    7    8 1    
    16    8    9 1    
    17    8   79 1    
    18    8   80 1    
    19    9   10 ar   
    20    9   14 ar   
    21   10   11 ar   
    22   10   81 1    
    23   11   12 ar   
    24   11   71 1    
    25   12   13 ar   
    26   12   82 1    
    27   13   14 ar   
    28   13   15 1    
    29   14   83 1    
    30   15   16 1    
    31   15   84 1    
    32   15   85 1    
    33   16   17 1    
    34   17   18 1    
    35   17   86 1    
    36   17   87 1    
    37   18   19 1    
    38   18   37 1    
    39   18   88 1    
    40   19   20 am   BACKBONE|DICT|INTERRES
    41   19   89 1    
    42   20   21 2    
    43   20   22 1    
    44   22   23 1    
    45   22   24 1    
    46   22   90 1    
    47   23   91 1    
    48   23   92 1    
    49   23   93 1    
    50   24   25 am   BACKBONE|DICT|INTERRES
    51   24   94 1    
    52   25   26 2    
    53   25   27 1    
    54   27   28 1    
    55   27   29 1    
    56   27   95 1    
    57   28   96 1    
    58   28   97 1    
    59   28   98 1    
    60   29   30 am   BACKBONE|DICT|INTERRES
    61   29   99 1    
    62   30   31 2    
    63   30   32 1    
    64   32   33 1    
    65   32   34 1    
    66   32  100 1    
    67   33  101 1    
    68   33  102 1    
    69   33  103 1    
    70   34   35 am   BACKBONE|DICT|INTERRES
    71   34  104 1    
    72   35   36 2    
    73   37   38 2    
    74   37   39 am   BACKBONE|DICT|INTERRES
    75   39   40 1    
    76   39  105 1    
    77   40   41 1    
    78   40   42 1    
    79   40  106 1    
    80   41  107 1    
    81   41  108 1    
    82   41  109 1    
    83   42   43 2    
    84   42   44 am   BACKBONE|DICT|INTERRES
    85   44   45 1    
    86   44  110 1    
    87   45   46 1    
    88   45   47 1    
    89   45  111 1    
    90   46  112 1    
    91   46  113 1    
    92   46  114 1    
    93   47   48 2    
    94   47   49 am   BACKBONE|DICT|INTERRES
    95   49   50 1    
    96   49  115 1    
    97   50   51 1    
    98   50   52 1    
    99   50  116 1    
   100   51  117 1    
   101   51  118 1    
   102   51  119 1    
   103   52   53 2    
   104   52   54 am   BACKBONE|DICT|INTERRES
   105   54   55 1    
   106   54  120 1    
   107   55   56 1    
   108   55   57 1    
   109   55  121 1    
   110   56  122 1    
   111   56  123 1    
   112   56  124 1    
   113   57   58 2    
   114   57   59 am   BACKBONE|DICT|INTERRES
   115   59   60 1    
   116   59  125 1    
   117   60   61 1    
   118   60   62 1    
   119   60  126 1    
   120   61  127 1    
   121   61  128 1    
   122   61  129 1    
   123   62   63 2    
   124   62   64 am   BACKBONE|DICT|INTERRES
   125   64   65 1    
   126   64  130 1    
   127   65   66 1    
   128   65   69 1    
   129   65  131 1    
   130   66   67 am   BACKBONE|DICT|INTERRES
   131   66   68 2    
   132   67  132 1    
   133   67  133 1    
   134   69   70 1    
   135   69  134 1    
   136   69  135 1    
   137   70   71 1    
   138   71  136 1    
   139   71  137 1    
@<TRIPOS>SUBSTRUCTURE
     1 UNK         1 GROUP             0       ****    0 ROOT    
