@<TRIPOS>MOLECULE
3R137
137   139    1
SMALL
USER_CHARGES


@<TRIPOS>ATOM
      1 CA         27.4682   -1.1591    1.3648 C.3       0 UNK        -0.2020 
      2 C          27.2518   -1.6774   -0.0482 C.2       0 UNK         0.4855 
      3 O          26.1460   -1.5544   -0.5750 O.2       0 UNK        -0.5197 
      4 N          28.3039   -2.2382   -0.6649 N.am      1 UNK        -0.4892 
      5 CA         28.3269   -2.8270   -2.0136 C.3       1 UNK         0.0835 
      6 C6         27.6699   -4.2369   -2.0646 C.3       12 UNK        -0.0855 
      7 S7         28.8939   -5.5282   -1.6691 S.3       12 UNK        -0.2931 
      8 C8         29.3529   -6.1105   -3.3392 C.3       12 UNK         0.0378 
      9 C9         29.8290   -4.9810   -4.2483 C.ar      12 UNK        -0.0802 
     10 C10        31.0380   -4.3285   -3.9865 C.ar      12 UNK        -0.0944 
     11 C11        31.4755   -3.2858   -4.8088 C.ar      12 UNK        -0.0787 
     12 C12        30.6980   -2.9037   -5.9067 C.ar      12 UNK        -0.0862 
     13 C13        29.4945   -3.5556   -6.1897 C.ar      12 UNK        -0.0733 
     14 C14        29.0656   -4.5941   -5.3563 C.ar      12 UNK        -0.0832 
     15 C15        28.6883   -3.1588   -7.4195 C.3       12 UNK         0.0240 
     16 S16        27.2771   -2.0896   -7.0011 S.3       12 UNK        -0.2522 
     17 C17        25.9088   -3.2982   -6.9791 C.3       12 UNK        -0.0967 
     18 CA         24.5194   -2.7280   -6.5928 C.3       5 UNK         0.0660 
     19 N          24.4048   -2.4417   -5.1585 N.am      5 UNK        -0.4015 
     20 C          23.2414   -2.4595   -4.4902 C.2       4 UNK         0.4946 
     21 O          22.1527   -2.6946   -5.0175 O.2       4 UNK        -0.5353 
     22 CA         23.2887   -2.1846   -2.9791 C.3       4 UNK         0.0277 
     23 CB         23.8043   -3.4158   -2.2179 C.3       4 UNK        -0.1981 
     24 N          24.0973   -1.0154   -2.6364 N.am      4 UNK        -0.4209 
     25 C          23.7482    0.2514   -2.9022 C.2       3 UNK         0.4942 
     26 O          22.6973    0.5736   -3.4572 O.2       3 UNK        -0.5208 
     27 CA         24.7398    1.3480   -2.4825 C.3       3 UNK         0.0250 
     28 CB         24.5831    1.6887   -0.9914 C.3       3 UNK        -0.1990 
     29 N          26.1266    0.9758   -2.7603 N.am      3 UNK        -0.4232 
     30 C          26.6552    0.9085   -3.9899 C.2       2 UNK         0.4993 
     31 O          26.0439    1.1982   -5.0179 O.2       2 UNK        -0.5286 
     32 CA         28.1043    0.4057   -4.0914 C.3       2 UNK         0.0209 
     33 CB         29.0960    1.5614   -3.8787 C.3       2 UNK        -0.1931 
     34 N          28.4292   -0.6772   -3.1603 N.am      2 UNK        -0.4546 
     35 C          27.7892   -1.8527   -3.0803 C.2       1 UNK         0.5154 
     36 O          26.7997   -2.1443   -3.7531 O.2       1 UNK        -0.5181 
     37 C          24.0922   -1.5401   -7.4802 C.2       5 UNK         0.5014 
     38 O          23.7364   -1.7622   -8.6386 O.2       5 UNK        -0.5248 
     39 N          24.1634   -0.3103   -6.9463 N.am      6 UNK        -0.4434 
     40 CA         23.8330    0.9868   -7.5554 C.3       6 UNK         0.0363 
     41 CB         22.3635    1.0410   -8.0165 C.3       6 UNK        -0.1936 
     42 C          24.7875    1.4419   -8.6764 C.2       6 UNK         0.5081 
     43 O          25.0327    2.6427   -8.7947 O.2       6 UNK        -0.5248 
     44 N          25.3136    0.5018   -9.4733 N.am      7 UNK        -0.4718 
     45 CA         26.3005    0.7422  -10.5309 C.3       7 UNK         0.0273 
     46 CB         26.4736   -0.5349  -11.3685 C.3       7 UNK        -0.1935 
     47 C          27.6548    1.2150   -9.9774 C.2       7 UNK         0.5018 
     48 O          28.2556    2.1297  -10.5435 O.2       7 UNK        -0.5186 
     49 N          28.0834    0.5938   -8.8688 N.am      8 UNK        -0.4240 
     50 CA         29.2536    0.8804   -8.0312 C.3       8 UNK         0.0235 
     51 CB         29.1280    2.2682   -7.3746 C.3       8 UNK        -0.2000 
     52 C          30.6234    0.7217   -8.7088 C.2       8 UNK         0.4941 
     53 O          31.4821    0.0310   -8.1603 O.2       8 UNK        -0.5273 
     54 N          30.8379    1.4248   -9.8308 N.am      9 UNK        -0.4262 
     55 CA         32.1125    1.5998  -10.5481 C.3       9 UNK         0.0264 
     56 CB         32.5166    0.2868  -11.2508 C.3       9 UNK        -0.1955 
     57 C          33.2393    2.1584   -9.6486 C.2       9 UNK         0.5031 
     58 O          34.4096    1.8177   -9.8379 O.2       9 UNK        -0.5390 
     59 N          32.8461    2.9465   -8.6328 N.am      10 UNK        -0.4204 
     60 CA         33.6473    3.4396   -7.5025 C.3       10 UNK         0.0237 
     61 CB         34.6561    4.5019   -7.9886 C.3       10 UNK        -0.1985 
     62 C          34.3305    2.3282   -6.6703 C.2       10 UNK         0.4970 
     63 O          35.2695    2.6285   -5.9310 O.2       10 UNK        -0.4914 
     64 N          33.8784    1.0726   -6.8191 N.am      11 UNK        -0.4285 
     65 CA         34.5452   -0.1504   -6.3470 C.3       11 UNK         0.1007 
     66 C          35.9912   -0.3454   -6.9034 C.2       11 UNK         0.5703 
     67 N          36.3198    0.1983   -8.0714 N.am      11 UNK        -0.7361 
     68 O          36.8181   -1.0219   -6.2960 O.2       11 UNK        -0.4986 
     69 C69        34.4069   -0.3595   -4.8100 C.3       12 UNK        -0.0947 
     70 S70        32.6970   -0.8122   -4.3623 S.3       12 UNK        -0.2240 
     71 C71        32.8206   -2.6210   -4.5549 C.3       12 UNK         0.0194 
     72 H72        28.4915   -1.3137    1.7061 H         1 UNK         0.0906 
     73 H73        27.2524   -0.0920    1.4093 H         1 UNK         0.0906 
     74 H74        26.7989   -1.6705    2.0560 H         1 UNK         0.0906 
     75 H75        29.1805   -2.2965   -0.1645 H         1 UNK         0.3140 
     76 H76        29.3814   -2.9325   -2.2696 H         1 UNK         0.1085 
     77 H77        26.8384   -4.3071   -1.3622 H         1 UNK         0.0836 
     78 H78        27.2460   -4.4717   -3.0422 H         1 UNK         0.0836 
     79 H79        28.4990   -6.6277   -3.7798 H         1 UNK         0.0731 
     80 H80        30.1449   -6.8552   -3.2483 H         1 UNK         0.0731 
     81 H81        31.6365   -4.6374   -3.1401 H         1 UNK         0.1312 
     82 H82        31.0435   -2.1067   -6.5521 H         1 UNK         0.1406 
     83 H83        28.1379   -5.1041   -5.5732 H         1 UNK         0.1631 
     84 H84        28.3460   -4.0511   -7.9456 H         1 UNK         0.0717 
     85 H85        29.3247   -2.6225   -8.1255 H         1 UNK         0.0717 
     86 H86        25.8494   -3.7512   -7.9707 H         1 UNK         0.0934 
     87 H87        26.1674   -4.1104   -6.2995 H         1 UNK         0.0934 
     88 H88        23.8040   -3.5244   -6.8114 H         1 UNK         0.0739 
     89 H89        25.2753   -2.2665   -4.6530 H         1 UNK         0.3093 
     90 H90        22.2669   -1.9904   -2.6457 H         1 UNK         0.0818 
     91 H91        23.1803   -4.2881   -2.4166 H         1 UNK         0.0819 
     92 H92        24.8226   -3.6695   -2.5101 H         1 UNK         0.0819 
     93 H93        23.7981   -3.2487   -1.1406 H         1 UNK         0.0819 
     94 H94        24.9680   -1.1926   -2.1418 H         1 UNK         0.3041 
     95 H95        24.5068    2.2451   -3.0607 H         1 UNK         0.0784 
     96 H96        23.5599    1.9942   -0.7683 H         1 UNK         0.0793 
     97 H97        24.8141    0.8356   -0.3524 H         1 UNK         0.0793 
     98 H98        25.2364    2.5119   -0.7018 H         1 UNK         0.0793 
     99 H99        26.6874    0.6726   -1.9773 H         1 UNK         0.3024 
    100 H100       28.2334    0.0157   -5.1017 H         1 UNK         0.1171 
    101 H101       30.1082    1.2698   -4.1609 H         1 UNK         0.0786 
    102 H102       28.8285    2.4308   -4.4794 H         1 UNK         0.0786 
    103 H103       29.1176    1.8886   -2.8386 H         1 UNK         0.0786 
    104 H104       29.2159   -0.5211   -2.5470 H         1 UNK         0.2977 
    105 H105       24.5627   -0.2338   -6.0183 H         1 UNK         0.3127 
    106 H106       23.9445    1.7137   -6.7490 H         1 UNK         0.0770 
    107 H107       22.1697    0.3644   -8.8490 H         1 UNK         0.0814 
    108 H108       22.0997    2.0454   -8.3500 H         1 UNK         0.0814 
    109 H109       21.6845    0.7798   -7.2047 H         1 UNK         0.0814 
    110 H110       24.9889   -0.4512   -9.3384 H         1 UNK         0.2983 
    111 H111       25.9142    1.5315  -11.1795 H         1 UNK         0.0947 
    112 H112       27.1980   -0.3811  -12.1697 H         1 UNK         0.0806 
    113 H113       25.5343   -0.8320  -11.8354 H         1 UNK         0.0806 
    114 H114       26.8263   -1.3723  -10.7648 H         1 UNK         0.0806 
    115 H115       27.4995   -0.1562   -8.5216 H         1 UNK         0.3000 
    116 H116       29.2305    0.1408   -7.2307 H         1 UNK         0.0850 
    117 H117       29.9541    2.4521   -6.6865 H         1 UNK         0.0810 
    118 H118       28.2012    2.3479   -6.8060 H         1 UNK         0.0810 
    119 H119       29.1307    3.0734   -8.1097 H         1 UNK         0.0810 
    120 H120       30.0325    1.9221  -10.2104 H         1 UNK         0.3040 
    121 H121       31.9348    2.3515  -11.3184 H         1 UNK         0.0766 
    122 H122       32.7661   -0.4951  -10.5327 H         1 UNK         0.0812 
    123 H123       33.3902    0.4348  -11.8869 H         1 UNK         0.0812 
    124 H124       31.7137   -0.0857  -11.8868 H         1 UNK         0.0812 
    125 H125       31.8598    3.1589   -8.5837 H         1 UNK         0.3205 
    126 H126       32.9476    3.9310   -6.8250 H         1 UNK         0.0754 
    127 H127       35.1594    4.9822   -7.1485 H         1 UNK         0.0769 
    128 H128       34.1607    5.2885   -8.5577 H         1 UNK         0.0769 
    129 H129       35.4278    4.0644   -8.6229 H         1 UNK         0.0769 
    130 H130       33.0764    0.9031   -7.4180 H         1 UNK         0.2981 
    131 H131       33.9977   -0.9606   -6.8295 H         1 UNK         0.0541 
    132 H132       35.6480    0.7446   -8.6005 H         1 UNK         0.3459 
    133 H133       37.2499    0.0611   -8.4330 H         1 UNK         0.3459 
    134 H134       34.6925    0.5410   -4.2652 H         1 UNK         0.0612 
    135 H135       35.0666   -1.1491   -4.4468 H         1 UNK         0.0612 
    136 H136       33.4739   -2.8584   -5.3955 H         1 UNK         0.0624 
    137 H137       33.3007   -3.0331   -3.6661 H         1 UNK         0.0624 
@<TRIPOS>BOND
     1    1    2 1    
     2    1   72 1    
     3    1   73 1    
     4    1   74 1    
     5    2    3 2    
     6    2    4 am   BACKBONE|DICT|INTERRES
     7    4    5 1    
     8    4   75 1    
     9    5    6 1    
    10    5   35 1    
    11    5   76 1    
    12    6    7 1    
    13    6   77 1    
    14    6   78 1    
    15    7    8 1    
    16    8    9 1    
    17    8   79 1    
    18    8   80 1    
    19    9   10 ar   
    20    9   14 ar   
    21   10   11 ar   
    22   10   81 1    
    23   11   12 ar   
    24   11   71 1    
    25   12   13 ar   
    26   12   82 1    
    27   13   14 ar   
    28   13   15 1    
    29   14   83 1    
    30   15   16 1    
    31   15   84 1    
    32   15   85 1    
    33   16   17 1    
    34   17   18 1    
    35   17   86 1    
    36   17   87 1    
    37   18   19 1    
    38   18   37 1    
    39   18   88 1    
    40   19   20 am   BACKBONE|DICT|INTERRES
    41   19   89 1    
    42   20   21 2    
    43   20   22 1    
    44   22   23 1    
    45   22   24 1    
    46   22   90 1    
    47   23   91 1    
    48   23   92 1    
    49   23   93 1    
    50   24   25 am   BACKBONE|DICT|INTERRES
    51   24   94 1    
    52   25   26 2    
    53   25   27 1    
    54   27   28 1    
    55   27   29 1    
    56   27   95 1    
    57   28   96 1    
    58   28   97 1    
    59   28   98 1    
    60   29   30 am   BACKBONE|DICT|INTERRES
    61   29   99 1    
    62   30   31 2    
    63   30   32 1    
    64   32   33 1    
    65   32   34 1    
    66   32  100 1    
    67   33  101 1    
    68   33  102 1    
    69   33  103 1    
    70   34   35 am   BACKBONE|DICT|INTERRES
    71   34  104 1    
    72   35   36 2    
    73   37   38 2    
    74   37   39 am   BACKBONE|DICT|INTERRES
    75   39   40 1    
    76   39  105 1    
    77   40   41 1    
    78   40   42 1    
    79   40  106 1    
    80   41  107 1    
    81   41  108 1    
    82   41  109 1    
    83   42   43 2    
    84   42   44 am   BACKBONE|DICT|INTERRES
    85   44   45 1    
    86   44  110 1    
    87   45   46 1    
    88   45   47 1    
    89   45  111 1    
    90   46  112 1    
    91   46  113 1    
    92   46  114 1    
    93   47   48 2    
    94   47   49 am   BACKBONE|DICT|INTERRES
    95   49   50 1    
    96   49  115 1    
    97   50   51 1    
    98   50   52 1    
    99   50  116 1    
   100   51  117 1    
   101   51  118 1    
   102   51  119 1    
   103   52   53 2    
   104   52   54 am   BACKBONE|DICT|INTERRES
   105   54   55 1    
   106   54  120 1    
   107   55   56 1    
   108   55   57 1    
   109   55  121 1    
   110   56  122 1    
   111   56  123 1    
   112   56  124 1    
   113   57   58 2    
   114   57   59 am   BACKBONE|DICT|INTERRES
   115   59   60 1    
   116   59  125 1    
   117   60   61 1    
   118   60   62 1    
   119   60  126 1    
   120   61  127 1    
   121   61  128 1    
   122   61  129 1    
   123   62   63 2    
   124   62   64 am   BACKBONE|DICT|INTERRES
   125   64   65 1    
   126   64  130 1    
   127   65   66 1    
   128   65   69 1    
   129   65  131 1    
   130   66   67 am   BACKBONE|DICT|INTERRES
   131   66   68 2    
   132   67  132 1    
   133   67  133 1    
   134   69   70 1    
   135   69  134 1    
   136   69  135 1    
   137   70   71 1    
   138   71  136 1    
   139   71  137 1    
@<TRIPOS>SUBSTRUCTURE
     1 UNK         1 GROUP             0       ****    0 ROOT    
