@<TRIPOS>MOLECULE
3R137
137   139    1
SMALL
USER_CHARGES


@<TRIPOS>ATOM
      1 CA         26.5894   -6.2399   -7.6713 C.3       0 UNK        -0.2020 
      2 C          27.3624   -4.9369   -7.8587 C.2       0 UNK         0.4855 
      3 O          27.7777   -4.6424   -8.9762 O.2       0 UNK        -0.5197 
      4 N          27.5950   -4.1323   -6.8121 N.am      1 UNK        -0.4892 
      5 CA         27.1226   -4.3080   -5.4368 C.3       1 UNK         0.0835 
      6 C6         27.9552   -3.4499   -4.4542 C.3       12 UNK        -0.0855 
      7 S7         27.5994   -3.8392   -2.7058 S.3       12 UNK        -0.2931 
      8 C8         29.2787   -3.9734   -2.0104 C.3       12 UNK         0.0378 
      9 C9         29.9789   -2.6224   -1.9696 C.ar      12 UNK        -0.0802 
     10 C10        31.1420   -2.3947   -2.7129 C.ar      12 UNK        -0.0944 
     11 C11        31.7841   -1.1520   -2.6641 C.ar      12 UNK        -0.0787 
     12 C12        31.2396   -0.1267   -1.8842 C.ar      12 UNK        -0.0862 
     13 C13        30.0651   -0.3386   -1.1545 C.ar      12 UNK        -0.0733 
     14 C14        29.4560   -1.5951   -1.1806 C.ar      12 UNK        -0.0832 
     15 C15        29.4207    0.7961   -0.3721 C.3       12 UNK         0.0240 
     16 S16        27.8424    1.3127   -1.1292 S.3       12 UNK        -0.2522 
     17 C17        28.3861    1.8103   -2.7990 C.3       12 UNK        -0.0967 
     18 CA         28.1193    0.7044   -3.8666 C.3       5 UNK         0.0660 
     19 N          26.7013    0.3647   -4.0089 N.am      5 UNK        -0.4015 
     20 C          25.7336    1.1581   -4.4912 C.2       4 UNK         0.4946 
     21 O          25.9220    2.3135   -4.8758 O.2       4 UNK        -0.5353 
     22 CA         24.3141    0.5686   -4.5692 C.3       4 UNK         0.0277 
     23 CB         23.9166    0.3133   -6.0313 C.3       4 UNK        -0.1981 
     24 N          24.1768   -0.6788   -3.8101 N.am      4 UNK        -0.4209 
     25 C          23.9043   -0.7387   -2.4969 C.2       3 UNK         0.4942 
     26 O          23.7072    0.2626   -1.8068 O.2       3 UNK        -0.5208 
     27 CA         23.8775   -2.1264   -1.8180 C.3       3 UNK         0.0250 
     28 CB         22.7165   -2.2620   -0.8095 C.3       3 UNK        -0.1990 
     29 N          23.9089   -3.2640   -2.7466 N.am      3 UNK        -0.4232 
     30 C          22.9835   -3.6203   -3.6524 C.2       2 UNK         0.4993 
     31 O          21.8943   -3.0595   -3.7799 O.2       2 UNK        -0.5286 
     32 CA         23.3660   -4.7803   -4.5983 C.3       2 UNK         0.0209 
     33 CB         22.6116   -4.7167   -5.9445 C.3       2 UNK        -0.1931 
     34 N          24.8162   -4.8992   -4.8298 N.am      2 UNK        -0.4546 
     35 C          25.6251   -3.9582   -5.3431 C.2       1 UNK         0.5154 
     36 O          25.2469   -2.8348   -5.6799 O.2       1 UNK        -0.5181 
     37 C          28.7464    0.9856   -5.2493 C.2       5 UNK         0.5014 
     38 O          28.4851    0.2365   -6.1973 O.2       5 UNK        -0.5248 
     39 N          29.5546    2.0502   -5.3522 N.am      6 UNK        -0.4434 
     40 CA         30.2971    2.4591   -6.5454 C.3       6 UNK         0.0363 
     41 CB         31.1530    3.6889   -6.2093 C.3       6 UNK        -0.1936 
     42 C          29.4322    2.7323   -7.7857 C.2       6 UNK         0.5081 
     43 O          29.9379    2.5850   -8.8966 O.2       6 UNK        -0.5248 
     44 N          28.1491    3.0711   -7.5924 N.am      7 UNK        -0.4718 
     45 CA         27.1720    3.2594   -8.6696 C.3       7 UNK         0.0273 
     46 CB         25.8673    3.8215   -8.0839 C.3       7 UNK        -0.1935 
     47 C          26.8936    1.9813   -9.4842 C.2       7 UNK         0.5018 
     48 O          26.4979    2.0939  -10.6453 O.2       7 UNK        -0.5186 
     49 N          27.1173    0.8067   -8.8780 N.am      8 UNK        -0.4240 
     50 CA         27.0425   -0.4947   -9.5404 C.3       8 UNK         0.0235 
     51 CB         26.0774   -1.4080   -8.7697 C.3       8 UNK        -0.2000 
     52 C          28.4301   -1.1420   -9.6507 C.2       8 UNK         0.4941 
     53 O          28.7728   -1.6437  -10.7215 O.2       8 UNK        -0.5273 
     54 N          29.2027   -1.1289   -8.5537 N.am      9 UNK        -0.4262 
     55 CA         30.4807   -1.8380   -8.4423 C.3       9 UNK         0.0264 
     56 CB         30.8166   -2.0335   -6.9546 C.3       9 UNK        -0.1955 
     57 C          31.6611   -1.1674   -9.1659 C.2       9 UNK         0.5031 
     58 O          32.6593   -1.8474   -9.4071 O.2       9 UNK        -0.5390 
     59 N          31.5624    0.1406   -9.4570 N.am      10 UNK        -0.4204 
     60 CA         32.6108    0.9975  -10.0369 C.3       10 UNK         0.0237 
     61 CB         32.9598    0.5540  -11.4742 C.3       10 UNK        -0.1985 
     62 C          33.8618    1.1563   -9.1431 C.2       10 UNK         0.4970 
     63 O          34.9249    1.5241   -9.6448 O.2       10 UNK        -0.4914 
     64 N          33.7146    0.8947   -7.8377 N.am      11 UNK        -0.4285 
     65 CA         34.7705    0.9660   -6.8163 C.3       11 UNK         0.1007 
     66 C          35.1422    2.3994   -6.3312 C.2       11 UNK         0.5703 
     67 N          34.5433    3.4601   -6.8583 N.am      11 UNK        -0.7361 
     68 O          36.0091    2.5545   -5.4741 O.2       11 UNK        -0.4986 
     69 C69        34.4861   -0.0173   -5.6483 C.3       12 UNK        -0.0947 
     70 S70        32.8782    0.2275   -4.8186 S.3       12 UNK        -0.2240 
     71 C71        33.0820   -0.9273   -3.4279 C.3       12 UNK         0.0194 
     72 H72        25.5429   -6.0430   -7.4418 H         1 UNK         0.0906 
     73 H73        26.6177   -6.8301   -8.5873 H         1 UNK         0.0906 
     74 H74        27.0213   -6.8509   -6.8799 H         1 UNK         0.0906 
     75 H75        28.0725   -3.2619   -6.9902 H         1 UNK         0.3140 
     76 H76        27.2664   -5.3527   -5.1555 H         1 UNK         0.1085 
     77 H77        29.0161   -3.6280   -4.6329 H         1 UNK         0.0836 
     78 H78        27.7996   -2.3833   -4.6260 H         1 UNK         0.0836 
     79 H79        29.2097   -4.3675   -0.9955 H         1 UNK         0.0731 
     80 H80        29.8548   -4.7016   -2.5836 H         1 UNK         0.0731 
     81 H81        31.5550   -3.1888   -3.3199 H         1 UNK         0.1312 
     82 H82        31.7257    0.8391   -1.8602 H         1 UNK         0.1406 
     83 H83        28.5473   -1.7615   -0.6176 H         1 UNK         0.1631 
     84 H84        30.0889    1.6562   -0.3064 H         1 UNK         0.0717 
     85 H85        29.2351    0.4707    0.6524 H         1 UNK         0.0717 
     86 H86        27.8707    2.7360   -3.0609 H         1 UNK         0.0934 
     87 H87        29.4463    2.0597   -2.7383 H         1 UNK         0.0934 
     88 H88        28.6070   -0.2100   -3.5302 H         1 UNK         0.0739 
     89 H89        26.4472   -0.5741   -3.7445 H         1 UNK         0.3093 
     90 H90        23.6293    1.3149   -4.1609 H         1 UNK         0.0818 
     91 H91        22.9018   -0.0778   -6.1052 H         1 UNK         0.0819 
     92 H92        23.9540    1.2332   -6.6157 H         1 UNK         0.0819 
     93 H93        24.5862   -0.4016   -6.5063 H         1 UNK         0.0819 
     94 H94        24.3320   -1.5385   -4.3275 H         1 UNK         0.3041 
     95 H95        24.8076   -2.1886   -1.2507 H         1 UNK         0.0784 
     96 H96        22.7917   -1.5112   -0.0220 H         1 UNK         0.0793 
     97 H97        21.7454   -2.1310   -1.2876 H         1 UNK         0.0793 
     98 H98        22.7236   -3.2380   -0.3244 H         1 UNK         0.0793 
     99 H99        24.7697   -3.7949   -2.7391 H         1 UNK         0.3024 
    100 H100       23.0545   -5.6936   -4.0881 H         1 UNK         0.1171 
    101 H101       22.8836   -5.5502   -6.5920 H         1 UNK         0.0786 
    102 H102       22.8212   -3.7915   -6.4827 H         1 UNK         0.0786 
    103 H103       21.5326   -4.7665   -5.7932 H         1 UNK         0.0786 
    104 H104       25.2249   -5.7783   -4.5415 H         1 UNK         0.2977 
    105 H105       29.6964    2.6203   -4.5319 H         1 UNK         0.3127 
    106 H106       30.9663    1.6372   -6.8024 H         1 UNK         0.0770 
    107 H107       30.5425    4.5231   -5.8615 H         1 UNK         0.0814 
    108 H108       31.7024    4.0355   -7.0853 H         1 UNK         0.0814 
    109 H109       31.8877    3.4620   -5.4361 H         1 UNK         0.0814 
    110 H110       27.8027    3.1406   -6.6448 H         1 UNK         0.2983 
    111 H111       27.5825    3.9982   -9.3614 H         1 UNK         0.0947 
    112 H112       25.1403    4.0216   -8.8723 H         1 UNK         0.0806 
    113 H113       26.0385    4.7598   -7.5563 H         1 UNK         0.0806 
    114 H114       25.4052    3.1231   -7.3862 H         1 UNK         0.0806 
    115 H115       27.4544    0.8160   -7.9217 H         1 UNK         0.3000 
    116 H116       26.6554   -0.3872  -10.5560 H         1 UNK         0.0850 
    117 H117       26.0337   -2.4007   -9.2192 H         1 UNK         0.0810 
    118 H118       25.0642   -1.0069   -8.7793 H         1 UNK         0.0810 
    119 H119       26.3820   -1.5315   -7.7302 H         1 UNK         0.0810 
    120 H120       28.8668   -0.6701   -7.7079 H         1 UNK         0.3040 
    121 H121       30.3579   -2.8277   -8.8888 H         1 UNK         0.0766 
    122 H122       31.7866   -2.5159   -6.8246 H         1 UNK         0.0812 
    123 H123       30.0797   -2.6634   -6.4626 H         1 UNK         0.0812 
    124 H124       30.8508   -1.0844   -6.4219 H         1 UNK         0.0812 
    125 H125       30.6984    0.6234   -9.2358 H         1 UNK         0.3205 
    126 H126       32.1782    1.9956  -10.1091 H         1 UNK         0.0754 
    127 H127       33.6071    1.2830  -11.9634 H         1 UNK         0.0769 
    128 H128       32.0636    0.4574  -12.0871 H         1 UNK         0.0769 
    129 H129       33.4819   -0.4031  -11.4896 H         1 UNK         0.0769 
    130 H130       32.8121    0.5987   -7.5021 H         1 UNK         0.2981 
    131 H131       35.6841    0.6050   -7.2921 H         1 UNK         0.0541 
    132 H132       33.8645    3.3504   -7.5921 H         1 UNK         0.3459 
    133 H133       34.8045    4.3800   -6.5409 H         1 UNK         0.3459 
    134 H134       35.2818    0.0286   -4.9024 H         1 UNK         0.0612 
    135 H135       34.5037   -1.0389   -6.0315 H         1 UNK         0.0612 
    136 H136       33.4665   -1.8754   -3.8072 H         1 UNK         0.0624 
    137 H137       33.8401   -0.5369   -2.7475 H         1 UNK         0.0624 
@<TRIPOS>BOND
     1    1    2 1    
     2    1   72 1    
     3    1   73 1    
     4    1   74 1    
     5    2    3 2    
     6    2    4 am   BACKBONE|DICT|INTERRES
     7    4    5 1    
     8    4   75 1    
     9    5    6 1    
    10    5   35 1    
    11    5   76 1    
    12    6    7 1    
    13    6   77 1    
    14    6   78 1    
    15    7    8 1    
    16    8    9 1    
    17    8   79 1    
    18    8   80 1    
    19    9   10 ar   
    20    9   14 ar   
    21   10   11 ar   
    22   10   81 1    
    23   11   12 ar   
    24   11   71 1    
    25   12   13 ar   
    26   12   82 1    
    27   13   14 ar   
    28   13   15 1    
    29   14   83 1    
    30   15   16 1    
    31   15   84 1    
    32   15   85 1    
    33   16   17 1    
    34   17   18 1    
    35   17   86 1    
    36   17   87 1    
    37   18   19 1    
    38   18   37 1    
    39   18   88 1    
    40   19   20 am   BACKBONE|DICT|INTERRES
    41   19   89 1    
    42   20   21 2    
    43   20   22 1    
    44   22   23 1    
    45   22   24 1    
    46   22   90 1    
    47   23   91 1    
    48   23   92 1    
    49   23   93 1    
    50   24   25 am   BACKBONE|DICT|INTERRES
    51   24   94 1    
    52   25   26 2    
    53   25   27 1    
    54   27   28 1    
    55   27   29 1    
    56   27   95 1    
    57   28   96 1    
    58   28   97 1    
    59   28   98 1    
    60   29   30 am   BACKBONE|DICT|INTERRES
    61   29   99 1    
    62   30   31 2    
    63   30   32 1    
    64   32   33 1    
    65   32   34 1    
    66   32  100 1    
    67   33  101 1    
    68   33  102 1    
    69   33  103 1    
    70   34   35 am   BACKBONE|DICT|INTERRES
    71   34  104 1    
    72   35   36 2    
    73   37   38 2    
    74   37   39 am   BACKBONE|DICT|INTERRES
    75   39   40 1    
    76   39  105 1    
    77   40   41 1    
    78   40   42 1    
    79   40  106 1    
    80   41  107 1    
    81   41  108 1    
    82   41  109 1    
    83   42   43 2    
    84   42   44 am   BACKBONE|DICT|INTERRES
    85   44   45 1    
    86   44  110 1    
    87   45   46 1    
    88   45   47 1    
    89   45  111 1    
    90   46  112 1    
    91   46  113 1    
    92   46  114 1    
    93   47   48 2    
    94   47   49 am   BACKBONE|DICT|INTERRES
    95   49   50 1    
    96   49  115 1    
    97   50   51 1    
    98   50   52 1    
    99   50  116 1    
   100   51  117 1    
   101   51  118 1    
   102   51  119 1    
   103   52   53 2    
   104   52   54 am   BACKBONE|DICT|INTERRES
   105   54   55 1    
   106   54  120 1    
   107   55   56 1    
   108   55   57 1    
   109   55  121 1    
   110   56  122 1    
   111   56  123 1    
   112   56  124 1    
   113   57   58 2    
   114   57   59 am   BACKBONE|DICT|INTERRES
   115   59   60 1    
   116   59  125 1    
   117   60   61 1    
   118   60   62 1    
   119   60  126 1    
   120   61  127 1    
   121   61  128 1    
   122   61  129 1    
   123   62   63 2    
   124   62   64 am   BACKBONE|DICT|INTERRES
   125   64   65 1    
   126   64  130 1    
   127   65   66 1    
   128   65   69 1    
   129   65  131 1    
   130   66   67 am   BACKBONE|DICT|INTERRES
   131   66   68 2    
   132   67  132 1    
   133   67  133 1    
   134   69   70 1    
   135   69  134 1    
   136   69  135 1    
   137   70   71 1    
   138   71  136 1    
   139   71  137 1    
@<TRIPOS>SUBSTRUCTURE
     1 UNK         1 GROUP             0       ****    0 ROOT    
