@<TRIPOS>MOLECULE
3R137
137   139    1
SMALL
USER_CHARGES


@<TRIPOS>ATOM
      1 CA         28.6718   -6.6942   -5.9128 C.3       0 UNK        -0.2020 
      2 C          29.1804   -5.3075   -5.5294 C.2       0 UNK         0.4855 
      3 O          30.1096   -4.8117   -6.1605 O.2       0 UNK        -0.5197 
      4 N          28.6138   -4.6419   -4.5126 N.am      1 UNK        -0.4892 
      5 CA         27.5042   -5.1012   -3.6618 C.3       1 UNK         0.0835 
      6 C6         27.5496   -4.4443   -2.2601 C.3       12 UNK        -0.0855 
      7 S7         29.0211   -4.9820   -1.3252 S.3       12 UNK        -0.2931 
      8 C8         29.5303   -3.4381   -0.4944 C.3       12 UNK         0.0378 
      9 C9         30.0995   -2.3542   -1.4110 C.ar      12 UNK        -0.0802 
     10 C10        30.7488   -2.6552   -2.6158 C.ar      12 UNK        -0.0944 
     11 C11        31.2842   -1.6371   -3.4096 C.ar      12 UNK        -0.0787 
     12 C12        31.1856   -0.3073   -2.9879 C.ar      12 UNK        -0.0862 
     13 C13        30.5777    0.0047   -1.7698 C.ar      12 UNK        -0.0733 
     14 C14        30.0240   -1.0200   -0.9967 C.ar      12 UNK        -0.0832 
     15 C15        30.5754    1.4347   -1.2492 C.3       12 UNK         0.0240 
     16 S16        28.9876    2.2706   -1.5363 S.3       12 UNK        -0.2522 
     17 C17        29.1484    2.8297   -3.2674 C.3       12 UNK        -0.0967 
     18 CA         28.2922    2.0023   -4.2569 C.3       5 UNK         0.0660 
     19 N          26.8996    1.8659   -3.8099 N.am      5 UNK        -0.4015 
     20 C          25.9770    1.0839   -4.3821 C.2       4 UNK         0.4946 
     21 O          26.1667    0.4370   -5.4135 O.2       4 UNK        -0.5353 
     22 CA         24.5996    1.0612   -3.7160 C.3       4 UNK         0.0277 
     23 CB         23.7112    2.1920   -4.2631 C.3       4 UNK        -0.1981 
     24 N          23.9624   -0.2271   -3.9737 N.am      4 UNK        -0.4209 
     25 C          23.1886   -0.8967   -3.1136 C.2       3 UNK         0.4942 
     26 O          22.9017   -0.4741   -1.9925 O.2       3 UNK        -0.5208 
     27 CA         22.6359   -2.2708   -3.5427 C.3       3 UNK         0.0250 
     28 CB         21.2405   -2.1243   -4.1814 C.3       3 UNK        -0.1990 
     29 N          23.5279   -3.0854   -4.3831 N.am      3 UNK        -0.4232 
     30 C          23.9376   -2.8731   -5.6405 C.2       2 UNK         0.4993 
     31 O          23.6298   -1.8781   -6.2943 O.2       2 UNK        -0.5286 
     32 CA         24.8638   -3.9415   -6.2556 C.3       2 UNK         0.0209 
     33 CB         25.2944   -3.5909   -7.6922 C.3       2 UNK        -0.1931 
     34 N          26.0669   -4.1805   -5.4515 N.am      2 UNK        -0.4546 
     35 C          26.1227   -4.8965   -4.3197 C.2       1 UNK         0.5154 
     36 O          25.1265   -5.3974   -3.7958 O.2       1 UNK        -0.5181 
     37 C          28.4079    2.5945   -5.6772 C.2       5 UNK         0.5014 
     38 O          29.2914    2.1904   -6.4351 O.2       5 UNK        -0.5248 
     39 N          27.5082    3.5312   -6.0138 N.am      6 UNK        -0.4434 
     40 CA         27.4074    4.1496   -7.3373 C.3       6 UNK         0.0363 
     41 CB         26.5227    5.4037   -7.2566 C.3       6 UNK        -0.1936 
     42 C          26.8710    3.1754   -8.3977 C.2       6 UNK         0.5081 
     43 O          27.3759    3.1656   -9.5192 O.2       6 UNK        -0.5248 
     44 N          25.8912    2.3429   -8.0180 N.am      7 UNK        -0.4718 
     45 CA         25.3448    1.2708   -8.8568 C.3       7 UNK         0.0273 
     46 CB         24.0271    0.7678   -8.2519 C.3       7 UNK        -0.1935 
     47 C          26.3491    0.1219   -9.0562 C.2       7 UNK         0.5018 
     48 O          26.4112   -0.4491  -10.1447 O.2       7 UNK        -0.5186 
     49 N          27.1674   -0.1392   -8.0274 N.am      8 UNK        -0.4240 
     50 CA         28.3417   -1.0140   -8.0679 C.3       8 UNK         0.0235 
     51 CB         28.7098   -1.4143   -6.6285 C.3       8 UNK        -0.2000 
     52 C          29.5564   -0.3902   -8.7889 C.2       8 UNK         0.4941 
     53 O          30.6062   -1.0320   -8.8340 O.2       8 UNK        -0.5273 
     54 N          29.4193    0.8402   -9.3123 N.am      9 UNK        -0.4262 
     55 CA         30.4066    1.6111  -10.0781 C.3       9 UNK         0.0264 
     56 CB         30.6053    0.9808  -11.4727 C.3       9 UNK        -0.1955 
     57 C          31.7341    1.8238   -9.3272 C.2       9 UNK         0.5031 
     58 O          32.8033    1.7159   -9.9323 O.2       9 UNK        -0.5390 
     59 N          31.6461    2.0682   -8.0093 N.am      10 UNK        -0.4204 
     60 CA         32.7646    2.1835   -7.0623 C.3       10 UNK         0.0237 
     61 CB         33.5519    3.4884   -7.3054 C.3       10 UNK        -0.1985 
     62 C          33.6685    0.9311   -7.0334 C.2       10 UNK         0.4970 
     63 O          34.8714    1.0466   -6.7937 O.2       10 UNK        -0.4914 
     64 N          33.0586   -0.2338   -7.2895 N.am      11 UNK        -0.4285 
     65 CA         33.6714   -1.5646   -7.4087 C.3       11 UNK         0.1007 
     66 C          34.4287   -1.7890   -8.7529 C.2       11 UNK         0.5703 
     67 N          34.3402   -0.8975   -9.7349 N.am      11 UNK        -0.7361 
     68 O          35.0927   -2.8090   -8.9242 O.2       11 UNK        -0.4986 
     69 C69        34.5167   -2.0014   -6.1725 C.3       12 UNK        -0.0947 
     70 S70        33.8000   -1.7408   -4.5079 S.3       12 UNK        -0.2240 
     71 C71        32.0033   -1.9675   -4.7069 C.3       12 UNK         0.0194 
     72 H72        28.8502   -7.4073   -5.1085 H         1 UNK         0.0906 
     73 H73        27.6076   -6.6786   -6.1441 H         1 UNK         0.0906 
     74 H74        29.1938   -7.0583   -6.7976 H         1 UNK         0.0906 
     75 H75        28.9901   -3.7377   -4.2665 H         1 UNK         0.3140 
     76 H76        27.5995   -6.1782   -3.5104 H         1 UNK         0.1085 
     77 H77        26.6743   -4.7193   -1.6677 H         1 UNK         0.0836 
     78 H78        27.5319   -3.3558   -2.3441 H         1 UNK         0.0836 
     79 H79        30.2894   -3.6856    0.2487 H         1 UNK         0.0731 
     80 H80        28.6737   -3.0498    0.0593 H         1 UNK         0.0731 
     81 H81        30.8579   -3.6830   -2.9324 H         1 UNK         0.1312 
     82 H82        31.6218    0.4778   -3.5903 H         1 UNK         0.1406 
     83 H83        29.5557   -0.7763   -0.0523 H         1 UNK         0.1631 
     84 H84        31.3898    2.0122   -1.6892 H         1 UNK         0.0717 
     85 H85        30.7683    1.4238   -0.1753 H         1 UNK         0.0717 
     86 H86        28.8562    3.8816   -3.2942 H         1 UNK         0.0934 
     87 H87        30.1987    2.8067   -3.5647 H         1 UNK         0.0934 
     88 H88        28.7095    0.9942   -4.2946 H         1 UNK         0.0739 
     89 H89        26.6669    2.3555   -2.9575 H         1 UNK         0.3093 
     90 H90        24.7388    1.1956   -2.6410 H         1 UNK         0.0818 
     91 H91        24.1625    3.1697   -4.0899 H         1 UNK         0.0819 
     92 H92        23.5445    2.0913   -5.3362 H         1 UNK         0.0819 
     93 H93        22.7362    2.1969   -3.7753 H         1 UNK         0.0819 
     94 H94        24.1577   -0.6439   -4.8818 H         1 UNK         0.3041 
     95 H95        22.5106   -2.8459   -2.6238 H         1 UNK         0.0784 
     96 H96        20.5536   -1.6182   -3.5017 H         1 UNK         0.0793 
     97 H97        21.2717   -1.5397   -5.1014 H         1 UNK         0.0793 
     98 H98        20.8068   -3.0964   -4.4155 H         1 UNK         0.0793 
     99 H99        23.8903   -3.9258   -3.9393 H         1 UNK         0.3024 
    100 H100       24.2866   -4.8681   -6.3015 H         1 UNK         0.1171 
    101 H101       25.8560   -2.6581   -7.7241 H         1 UNK         0.0786 
    102 H102       25.9155   -4.3742   -8.1268 H         1 UNK         0.0786 
    103 H103       24.4270   -3.4685   -8.3424 H         1 UNK         0.0786 
    104 H104       26.9277   -3.7825   -5.7968 H         1 UNK         0.2977 
    105 H105       26.8300    3.8164   -5.3227 H         1 UNK         0.3127 
    106 H106       28.4089    4.4581   -7.6464 H         1 UNK         0.0770 
    107 H107       25.5079    5.1665   -6.9348 H         1 UNK         0.0814 
    108 H108       26.4498    5.8909   -8.2300 H         1 UNK         0.0814 
    109 H109       26.9341    6.1353   -6.5609 H         1 UNK         0.0814 
    110 H110       25.5628    2.3841   -7.0647 H         1 UNK         0.2983 
    111 H111       25.1274    1.6851   -9.8440 H         1 UNK         0.0947 
    112 H112       23.6363   -0.0852   -8.8085 H         1 UNK         0.0806 
    113 H113       23.2623    1.5442   -8.2663 H         1 UNK         0.0806 
    114 H114       24.1584    0.4495   -7.2188 H         1 UNK         0.0806 
    115 H115       26.9669    0.3067   -7.1351 H         1 UNK         0.3000 
    116 H116       28.0751   -1.9191   -8.6171 H         1 UNK         0.0850 
    117 H117       29.0887   -0.5650   -6.0608 H         1 UNK         0.0810 
    118 H118       29.4860   -2.1799   -6.6247 H         1 UNK         0.0810 
    119 H119       27.8509   -1.8158   -6.0918 H         1 UNK         0.0810 
    120 H120       28.5293    1.3060   -9.1866 H         1 UNK         0.3040 
    121 H121       29.9788    2.6042  -10.2211 H         1 UNK         0.0766 
    122 H122       31.0734   -0.0022  -11.4072 H         1 UNK         0.0812 
    123 H123       29.6552    0.8662  -11.9945 H         1 UNK         0.0812 
    124 H124       31.2442    1.6051  -12.0985 H         1 UNK         0.0812 
    125 H125       30.7181    2.1070   -7.5852 H         1 UNK         0.3205 
    126 H126       32.3134    2.2496   -6.0711 H         1 UNK         0.0754 
    127 H127       34.2971    3.6483   -6.5252 H         1 UNK         0.0769 
    128 H128       32.8914    4.3555   -7.3027 H         1 UNK         0.0769 
    129 H129       34.0788    3.4705   -8.2600 H         1 UNK         0.0769 
    130 H130       32.0857   -0.2098   -7.5714 H         1 UNK         0.2981 
    131 H131       32.8248   -2.2490   -7.4677 H         1 UNK         0.0541 
    132 H132       34.8302   -1.0706  -10.5976 H         1 UNK         0.3459 
    133 H133       33.7914   -0.0512   -9.6307 H         1 UNK         0.3459 
    134 H134       35.4820   -1.4931   -6.1851 H         1 UNK         0.0612 
    135 H135       34.7479   -3.0651   -6.2493 H         1 UNK         0.0612 
    136 H136       31.6058   -1.3207   -5.4858 H         1 UNK         0.0624 
    137 H137       31.8038   -2.9936   -5.0180 H         1 UNK         0.0624 
@<TRIPOS>BOND
     1    1    2 1    
     2    1   72 1    
     3    1   73 1    
     4    1   74 1    
     5    2    3 2    
     6    2    4 am   BACKBONE|DICT|INTERRES
     7    4    5 1    
     8    4   75 1    
     9    5    6 1    
    10    5   35 1    
    11    5   76 1    
    12    6    7 1    
    13    6   77 1    
    14    6   78 1    
    15    7    8 1    
    16    8    9 1    
    17    8   79 1    
    18    8   80 1    
    19    9   10 ar   
    20    9   14 ar   
    21   10   11 ar   
    22   10   81 1    
    23   11   12 ar   
    24   11   71 1    
    25   12   13 ar   
    26   12   82 1    
    27   13   14 ar   
    28   13   15 1    
    29   14   83 1    
    30   15   16 1    
    31   15   84 1    
    32   15   85 1    
    33   16   17 1    
    34   17   18 1    
    35   17   86 1    
    36   17   87 1    
    37   18   19 1    
    38   18   37 1    
    39   18   88 1    
    40   19   20 am   BACKBONE|DICT|INTERRES
    41   19   89 1    
    42   20   21 2    
    43   20   22 1    
    44   22   23 1    
    45   22   24 1    
    46   22   90 1    
    47   23   91 1    
    48   23   92 1    
    49   23   93 1    
    50   24   25 am   BACKBONE|DICT|INTERRES
    51   24   94 1    
    52   25   26 2    
    53   25   27 1    
    54   27   28 1    
    55   27   29 1    
    56   27   95 1    
    57   28   96 1    
    58   28   97 1    
    59   28   98 1    
    60   29   30 am   BACKBONE|DICT|INTERRES
    61   29   99 1    
    62   30   31 2    
    63   30   32 1    
    64   32   33 1    
    65   32   34 1    
    66   32  100 1    
    67   33  101 1    
    68   33  102 1    
    69   33  103 1    
    70   34   35 am   BACKBONE|DICT|INTERRES
    71   34  104 1    
    72   35   36 2    
    73   37   38 2    
    74   37   39 am   BACKBONE|DICT|INTERRES
    75   39   40 1    
    76   39  105 1    
    77   40   41 1    
    78   40   42 1    
    79   40  106 1    
    80   41  107 1    
    81   41  108 1    
    82   41  109 1    
    83   42   43 2    
    84   42   44 am   BACKBONE|DICT|INTERRES
    85   44   45 1    
    86   44  110 1    
    87   45   46 1    
    88   45   47 1    
    89   45  111 1    
    90   46  112 1    
    91   46  113 1    
    92   46  114 1    
    93   47   48 2    
    94   47   49 am   BACKBONE|DICT|INTERRES
    95   49   50 1    
    96   49  115 1    
    97   50   51 1    
    98   50   52 1    
    99   50  116 1    
   100   51  117 1    
   101   51  118 1    
   102   51  119 1    
   103   52   53 2    
   104   52   54 am   BACKBONE|DICT|INTERRES
   105   54   55 1    
   106   54  120 1    
   107   55   56 1    
   108   55   57 1    
   109   55  121 1    
   110   56  122 1    
   111   56  123 1    
   112   56  124 1    
   113   57   58 2    
   114   57   59 am   BACKBONE|DICT|INTERRES
   115   59   60 1    
   116   59  125 1    
   117   60   61 1    
   118   60   62 1    
   119   60  126 1    
   120   61  127 1    
   121   61  128 1    
   122   61  129 1    
   123   62   63 2    
   124   62   64 am   BACKBONE|DICT|INTERRES
   125   64   65 1    
   126   64  130 1    
   127   65   66 1    
   128   65   69 1    
   129   65  131 1    
   130   66   67 am   BACKBONE|DICT|INTERRES
   131   66   68 2    
   132   67  132 1    
   133   67  133 1    
   134   69   70 1    
   135   69  134 1    
   136   69  135 1    
   137   70   71 1    
   138   71  136 1    
   139   71  137 1    
@<TRIPOS>SUBSTRUCTURE
     1 UNK         1 GROUP             0       ****    0 ROOT    
