@<TRIPOS>MOLECULE
3R137
137   139    1
SMALL
USER_CHARGES


@<TRIPOS>ATOM
      1 CA         28.6994   -6.7593    1.2276 C.3       0 UNK        -0.2020 
      2 C          27.9180   -5.4614    1.0897 C.2       0 UNK         0.4855 
      3 O          27.1589   -5.1048    1.9911 O.2       0 UNK        -0.5197 
      4 N          28.1000   -4.7509   -0.0307 N.am      1 UNK        -0.4892 
      5 CA         27.4101   -3.4963   -0.3580 C.3       1 UNK         0.0835 
      6 C6         28.1096   -2.7431   -1.5190 C.3       12 UNK        -0.0855 
      7 S7         28.3726   -3.7624   -3.0160 S.3       12 UNK        -0.2931 
      8 C8         28.7084   -2.4905   -4.2749 C.3       12 UNK         0.0378 
      9 C9         29.9205   -1.6384   -3.9300 C.ar      12 UNK        -0.0802 
     10 C10        31.2070   -2.1778   -4.0255 C.ar      12 UNK        -0.0944 
     11 C11        32.3245   -1.4046   -3.6987 C.ar      12 UNK        -0.0787 
     12 C12        32.1484   -0.0780   -3.2951 C.ar      12 UNK        -0.0862 
     13 C13        30.8673    0.4745   -3.1981 C.ar      12 UNK        -0.0733 
     14 C14        29.7553   -0.3130   -3.5124 C.ar      12 UNK        -0.0832 
     15 C15        30.6943    1.9094   -2.7186 C.3       12 UNK         0.0240 
     16 S16        30.3304    3.0550   -4.0899 S.3       12 UNK        -0.2522 
     17 C17        28.5111    3.2019   -4.0175 C.3       12 UNK        -0.0967 
     18 CA         27.7897    2.4819   -5.1865 C.3       5 UNK         0.0660 
     19 N          26.4584    2.0133   -4.7702 N.am      5 UNK        -0.4015 
     20 C          25.6704    1.2034   -5.4877 C.2       4 UNK         0.4946 
     21 O          25.9588    0.7861   -6.6099 O.2       4 UNK        -0.5353 
     22 CA         24.3015    0.8479   -4.8921 C.3       4 UNK         0.0277 
     23 CB         23.1950    1.6647   -5.5802 C.3       4 UNK        -0.1981 
     24 N          24.0298   -0.5790   -5.0658 N.am      4 UNK        -0.4209 
     25 C          24.6463   -1.5412   -4.3698 C.2       3 UNK         0.4942 
     26 O          25.4351   -1.3178   -3.4486 O.2       3 UNK        -0.5208 
     27 CA         24.3604   -2.9857   -4.8035 C.3       3 UNK         0.0250 
     28 CB         25.2593   -3.3783   -5.9885 C.3       3 UNK        -0.1990 
     29 N          24.6176   -3.8978   -3.6903 N.am      3 UNK        -0.4232 
     30 C          23.6863   -4.3578   -2.8451 C.2       2 UNK         0.4993 
     31 O          22.4779   -4.1592   -2.9794 O.2       2 UNK        -0.5286 
     32 CA         24.1806   -5.1796   -1.6400 C.3       2 UNK         0.0209 
     33 CB         24.1020   -6.6847   -1.9434 C.3       2 UNK        -0.1931 
     34 N          25.5475   -4.8421   -1.2324 N.am      2 UNK        -0.4546 
     35 C          25.9048   -3.6944   -0.6364 C.2       1 UNK         0.5154 
     36 O          25.1031   -2.8222   -0.2984 O.2       1 UNK        -0.5181 
     37 C          27.7563    3.3497   -6.4690 C.2       5 UNK         0.5014 
     38 O          28.7390    3.3862   -7.2086 O.2       5 UNK        -0.5248 
     39 N          26.6179    4.0113   -6.7291 N.am      6 UNK        -0.4434 
     40 CA         26.3516    4.7537   -7.9636 C.3       6 UNK         0.0363 
     41 CB         25.1105    5.6387   -7.7646 C.3       6 UNK        -0.1936 
     42 C          26.1687    3.8419   -9.1922 C.2       6 UNK         0.5081 
     43 O          26.4778    4.2696  -10.3045 O.2       6 UNK        -0.5248 
     44 N          25.6698    2.6157   -8.9789 N.am      7 UNK        -0.4718 
     45 CA         25.5256    1.5913  -10.0142 C.3       7 UNK         0.0273 
     46 CB         24.3164    0.6955   -9.6951 C.3       7 UNK        -0.1935 
     47 C          26.8121    0.7630  -10.1266 C.2       7 UNK         0.5018 
     48 O          27.3272    0.5785  -11.2303 O.2       7 UNK        -0.5186 
     49 N          27.3347    0.3144   -8.9779 N.am      8 UNK        -0.4240 
     50 CA         28.5914   -0.4189   -8.8338 C.3       8 UNK         0.0235 
     51 CB         28.5419   -1.2320   -7.5281 C.3       8 UNK        -0.2000 
     52 C          29.8062    0.5255   -8.8955 C.2       8 UNK         0.4941 
     53 O          30.5968    0.5829   -7.9509 O.2       8 UNK        -0.5273 
     54 N          29.9386    1.2475  -10.0167 N.am      9 UNK        -0.4262 
     55 CA         31.0654    2.1279  -10.3258 C.3       9 UNK         0.0264 
     56 CB         30.7998    2.8509  -11.6556 C.3       9 UNK        -0.1955 
     57 C          32.3728    1.3230  -10.3840 C.2       9 UNK         0.5031 
     58 O          32.4248    0.3086  -11.0848 O.2       9 UNK        -0.5390 
     59 N          33.3712    1.7503   -9.5972 N.am      10 UNK        -0.4204 
     60 CA         34.6387    1.0496   -9.3384 C.3       10 UNK         0.0237 
     61 CB         35.5419    1.0770  -10.5906 C.3       10 UNK        -0.1985 
     62 C          34.4382   -0.3756   -8.7727 C.2       10 UNK         0.4970 
     63 O          35.2281   -1.2711   -9.0766 O.2       10 UNK        -0.4914 
     64 N          33.3710   -0.5520   -7.9801 N.am      11 UNK        -0.4285 
     65 CA         32.8811   -1.8205   -7.4176 C.3       11 UNK         0.1007 
     66 C          32.2180   -2.7708   -8.4608 C.2       11 UNK         0.5703 
     67 N          31.9741   -2.3528   -9.6988 N.am      11 UNK        -0.7361 
     68 O          31.8834   -3.9069   -8.1341 O.2       11 UNK        -0.4986 
     69 C69        33.9117   -2.5573   -6.5118 C.3       12 UNK        -0.0947 
     70 S70        34.6444   -1.4941   -5.2211 S.3       12 UNK        -0.2240 
     71 C71        33.7216   -2.0062   -3.7401 C.3       12 UNK         0.0194 
     72 H72        29.3341   -6.7229    2.1126 H         1 UNK         0.0906 
     73 H73        28.0143   -7.6000    1.3338 H         1 UNK         0.0906 
     74 H74        29.3350   -6.9472    0.3624 H         1 UNK         0.0906 
     75 H75        28.7384   -5.0837   -0.7410 H         1 UNK         0.3140 
     76 H76        27.4706   -2.8560    0.5252 H         1 UNK         0.1085 
     77 H77        27.5505   -1.8438   -1.7858 H         1 UNK         0.0836 
     78 H78        29.0862   -2.3910   -1.1823 H         1 UNK         0.0836 
     79 H79        27.8251   -1.8657   -4.4080 H         1 UNK         0.0731 
     80 H80        28.8788   -2.9876   -5.2303 H         1 UNK         0.0731 
     81 H81        31.3338   -3.2055   -4.3374 H         1 UNK         0.1312 
     82 H82        33.0138    0.5202   -3.0439 H         1 UNK         0.1406 
     83 H83        28.7615    0.1049   -3.4281 H         1 UNK         0.1631 
     84 H84        31.6092    2.2503   -2.2314 H         1 UNK         0.0717 
     85 H85        29.9222    1.9557   -1.9501 H         1 UNK         0.0717 
     86 H86        28.1746    2.7992   -3.0616 H         1 UNK         0.0934 
     87 H87        28.2476    4.2611   -3.9829 H         1 UNK         0.0934 
     88 H88        28.3584    1.5844   -5.4402 H         1 UNK         0.0739 
     89 H89        26.1357    2.3253   -3.8654 H         1 UNK         0.3093 
     90 H90        24.2965    1.0783   -3.8243 H         1 UNK         0.0818 
     91 H91        23.3546    2.7351   -5.4442 H         1 UNK         0.0819 
     92 H92        23.1573    1.4747   -6.6540 H         1 UNK         0.0819 
     93 H93        22.2143    1.4312   -5.1651 H         1 UNK         0.0819 
     94 H94        23.4326   -0.8362   -5.8381 H         1 UNK         0.3041 
     95 H95        23.3167   -3.0581   -5.1175 H         1 UNK         0.0784 
     96 H96        25.0346   -4.3869   -6.3359 H         1 UNK         0.0793 
     97 H97        26.3161   -3.3460   -5.7245 H         1 UNK         0.0793 
     98 H98        25.1146   -2.7049   -6.8346 H         1 UNK         0.0793 
     99 H99        25.5886   -4.0436   -3.4518 H         1 UNK         0.3024 
    100 H100       23.5124   -4.9616   -0.8035 H         1 UNK         0.1171 
    101 H101       23.0880   -6.9732   -2.2242 H         1 UNK         0.0786 
    102 H102       24.7606   -6.9667   -2.7659 H         1 UNK         0.0786 
    103 H103       24.3767   -7.2802   -1.0724 H         1 UNK         0.0786 
    104 H104       26.2757   -5.5047   -1.4581 H         1 UNK         0.2977 
    105 H105       25.8641    3.9539   -6.0607 H         1 UNK         0.3127 
    106 H106       27.2070    5.4038   -8.1608 H         1 UNK         0.0770 
    107 H107       24.2198    5.0461   -7.5516 H         1 UNK         0.0814 
    108 H108       24.9036    6.2252   -8.6610 H         1 UNK         0.0814 
    109 H109       25.2514    6.3433   -6.9449 H         1 UNK         0.0814 
    110 H110       25.5085    2.3137   -8.0264 H         1 UNK         0.2983 
    111 H111       25.3454    2.0679  -10.9807 H         1 UNK         0.0947 
    112 H112       24.1822   -0.0639  -10.4665 H         1 UNK         0.0806 
    113 H113       23.3956    1.2771   -9.6500 H         1 UNK         0.0806 
    114 H114       24.4294    0.1751   -8.7435 H         1 UNK         0.0806 
    115 H115       26.8405    0.5228   -8.1101 H         1 UNK         0.3000 
    116 H116       28.6865   -1.1241   -9.6623 H         1 UNK         0.0850 
    117 H117       29.4437   -1.8329   -7.4080 H         1 UNK         0.0810 
    118 H118       27.6919   -1.9141   -7.5168 H         1 UNK         0.0810 
    119 H119       28.4625   -0.5830   -6.6554 H         1 UNK         0.0810 
    120 H120       29.2347    1.1252  -10.7366 H         1 UNK         0.3040 
    121 H121       31.1301    2.8736   -9.5304 H         1 UNK         0.0766 
    122 H122       29.8855    3.4434  -11.6090 H         1 UNK         0.0812 
    123 H123       30.7026    2.1480  -12.4842 H         1 UNK         0.0812 
    124 H124       31.6162    3.5320  -11.8992 H         1 UNK         0.0812 
    125 H125       33.2176    2.5857   -9.0482 H         1 UNK         0.3205 
    126 H126       35.1463    1.6130   -8.5540 H         1 UNK         0.0754 
    127 H127       36.5329    0.6792  -10.3682 H         1 UNK         0.0769 
    128 H128       35.6785    2.0936  -10.9592 H         1 UNK         0.0769 
    129 H129       35.1265    0.4789  -11.4025 H         1 UNK         0.0769 
    130 H130       32.7356    0.2249   -7.8427 H         1 UNK         0.2981 
    131 H131       32.0552   -1.5239   -6.7708 H         1 UNK         0.0541 
    132 H132       32.2380   -1.4232  -10.0056 H         1 UNK         0.3459 
    133 H133       31.5414   -2.9877  -10.3497 H         1 UNK         0.3459 
    134 H134       34.7261   -2.9630   -7.1131 H         1 UNK         0.0612 
    135 H135       33.4455   -3.4186   -6.0310 H         1 UNK         0.0612 
    136 H136       33.6810   -3.0952   -3.6855 H         1 UNK         0.0624 
    137 H137       34.2763   -1.6823   -2.8584 H         1 UNK         0.0624 
@<TRIPOS>BOND
     1    1    2 1    
     2    1   72 1    
     3    1   73 1    
     4    1   74 1    
     5    2    3 2    
     6    2    4 am   BACKBONE|DICT|INTERRES
     7    4    5 1    
     8    4   75 1    
     9    5    6 1    
    10    5   35 1    
    11    5   76 1    
    12    6    7 1    
    13    6   77 1    
    14    6   78 1    
    15    7    8 1    
    16    8    9 1    
    17    8   79 1    
    18    8   80 1    
    19    9   10 ar   
    20    9   14 ar   
    21   10   11 ar   
    22   10   81 1    
    23   11   12 ar   
    24   11   71 1    
    25   12   13 ar   
    26   12   82 1    
    27   13   14 ar   
    28   13   15 1    
    29   14   83 1    
    30   15   16 1    
    31   15   84 1    
    32   15   85 1    
    33   16   17 1    
    34   17   18 1    
    35   17   86 1    
    36   17   87 1    
    37   18   19 1    
    38   18   37 1    
    39   18   88 1    
    40   19   20 am   BACKBONE|DICT|INTERRES
    41   19   89 1    
    42   20   21 2    
    43   20   22 1    
    44   22   23 1    
    45   22   24 1    
    46   22   90 1    
    47   23   91 1    
    48   23   92 1    
    49   23   93 1    
    50   24   25 am   BACKBONE|DICT|INTERRES
    51   24   94 1    
    52   25   26 2    
    53   25   27 1    
    54   27   28 1    
    55   27   29 1    
    56   27   95 1    
    57   28   96 1    
    58   28   97 1    
    59   28   98 1    
    60   29   30 am   BACKBONE|DICT|INTERRES
    61   29   99 1    
    62   30   31 2    
    63   30   32 1    
    64   32   33 1    
    65   32   34 1    
    66   32  100 1    
    67   33  101 1    
    68   33  102 1    
    69   33  103 1    
    70   34   35 am   BACKBONE|DICT|INTERRES
    71   34  104 1    
    72   35   36 2    
    73   37   38 2    
    74   37   39 am   BACKBONE|DICT|INTERRES
    75   39   40 1    
    76   39  105 1    
    77   40   41 1    
    78   40   42 1    
    79   40  106 1    
    80   41  107 1    
    81   41  108 1    
    82   41  109 1    
    83   42   43 2    
    84   42   44 am   BACKBONE|DICT|INTERRES
    85   44   45 1    
    86   44  110 1    
    87   45   46 1    
    88   45   47 1    
    89   45  111 1    
    90   46  112 1    
    91   46  113 1    
    92   46  114 1    
    93   47   48 2    
    94   47   49 am   BACKBONE|DICT|INTERRES
    95   49   50 1    
    96   49  115 1    
    97   50   51 1    
    98   50   52 1    
    99   50  116 1    
   100   51  117 1    
   101   51  118 1    
   102   51  119 1    
   103   52   53 2    
   104   52   54 am   BACKBONE|DICT|INTERRES
   105   54   55 1    
   106   54  120 1    
   107   55   56 1    
   108   55   57 1    
   109   55  121 1    
   110   56  122 1    
   111   56  123 1    
   112   56  124 1    
   113   57   58 2    
   114   57   59 am   BACKBONE|DICT|INTERRES
   115   59   60 1    
   116   59  125 1    
   117   60   61 1    
   118   60   62 1    
   119   60  126 1    
   120   61  127 1    
   121   61  128 1    
   122   61  129 1    
   123   62   63 2    
   124   62   64 am   BACKBONE|DICT|INTERRES
   125   64   65 1    
   126   64  130 1    
   127   65   66 1    
   128   65   69 1    
   129   65  131 1    
   130   66   67 am   BACKBONE|DICT|INTERRES
   131   66   68 2    
   132   67  132 1    
   133   67  133 1    
   134   69   70 1    
   135   69  134 1    
   136   69  135 1    
   137   70   71 1    
   138   71  136 1    
   139   71  137 1    
@<TRIPOS>SUBSTRUCTURE
     1 UNK         1 GROUP             0       ****    0 ROOT    
