@<TRIPOS>MOLECULE
3R137
137   139    1
SMALL
USER_CHARGES


@<TRIPOS>ATOM
      1 CA         26.2575   -4.5277    2.4014 C.3       0 UNK        -0.2020 
      2 C          26.6470   -3.6341    1.2339 C.2       0 UNK         0.4855 
      3 O          27.0890   -2.5037    1.4459 O.2       0 UNK        -0.5197 
      4 N          26.4882   -4.1268   -0.0009 N.am      1 UNK        -0.4892 
      5 CA         26.7902   -3.4051   -1.2407 C.3       1 UNK         0.0835 
      6 C6         27.0767   -4.3721   -2.4218 C.3       12 UNK        -0.0855 
      7 S7         28.4778   -5.5016   -2.1039 S.3       12 UNK        -0.2931 
      8 C8         29.4173   -5.4088   -3.6740 C.3       12 UNK         0.0378 
      9 C9         30.3229   -4.1857   -3.8538 C.ar      12 UNK        -0.0802 
     10 C10        31.2336   -4.1794   -4.9170 C.ar      12 UNK        -0.0944 
     11 C11        32.0909   -3.0929   -5.1231 C.ar      12 UNK        -0.0787 
     12 C12        32.0179   -1.9875   -4.2713 C.ar      12 UNK        -0.0862 
     13 C13        31.1080   -1.9724   -3.2117 C.ar      12 UNK        -0.0733 
     14 C14        30.2804   -3.0767   -3.0004 C.ar      12 UNK        -0.0832 
     15 C15        31.0239   -0.7711   -2.2826 C.3       12 UNK         0.0240 
     16 S16        30.1021    0.6081   -3.0315 S.3       12 UNK        -0.2522 
     17 C17        28.4107   -0.0653   -3.2099 C.3       12 UNK        -0.0967 
     18 CA         27.9921   -0.2757   -4.6895 C.3       5 UNK         0.0660 
     19 N          26.7574   -1.0606   -4.8182 N.am      5 UNK        -0.4015 
     20 C          26.2973   -1.5614   -5.9765 C.2       4 UNK         0.4946 
     21 O          26.9073   -1.4926   -7.0416 O.2       4 UNK        -0.5353 
     22 CA         24.8941   -2.1888   -5.9732 C.3       4 UNK         0.0277 
     23 CB         24.9531   -3.6965   -5.6857 C.3       4 UNK        -0.1981 
     24 N          23.9894   -1.5209   -5.0346 N.am      4 UNK        -0.4209 
     25 C          23.4633   -0.3076   -5.2632 C.2       3 UNK         0.4942 
     26 O          23.6551    0.3291   -6.2979 O.2       3 UNK        -0.5208 
     27 CA         22.6202    0.3327   -4.1469 C.3       3 UNK         0.0250 
     28 CB         21.1404   -0.0496   -4.3055 C.3       3 UNK        -0.1990 
     29 N          23.0693   -0.0032   -2.7941 N.am      3 UNK        -0.4232 
     30 C          24.2865    0.2545   -2.2961 C.2       2 UNK         0.4993 
     31 O          25.1775    0.8168   -2.9355 O.2       2 UNK        -0.5286 
     32 CA         24.5847   -0.2398   -0.8661 C.3       2 UNK         0.0209 
     33 CB         23.3337   -0.7130   -0.0910 C.3       2 UNK        -0.1931 
     34 N          25.6090   -1.2932   -0.8330 N.am      2 UNK        -0.4546 
     35 C          25.6469   -2.4193   -1.5613 C.2       1 UNK         0.5154 
     36 O          24.8200   -2.7011   -2.4308 O.2       1 UNK        -0.5181 
     37 C          27.8604    1.0626   -5.4453 C.2       5 UNK         0.5014 
     38 O          28.7783    1.4400   -6.1709 O.2       5 UNK        -0.5248 
     39 N          26.7095    1.7353   -5.2916 N.am      6 UNK        -0.4434 
     40 CA         26.3751    2.9676   -6.0085 C.3       6 UNK         0.0363 
     41 CB         25.0761    3.5608   -5.4406 C.3       6 UNK        -0.1936 
     42 C          26.2702    2.7697   -7.5322 C.2       6 UNK         0.5081 
     43 O          26.7780    3.6023   -8.2832 O.2       6 UNK        -0.5248 
     44 N          25.6253    1.6770   -7.9642 N.am      7 UNK        -0.4718 
     45 CA         25.4448    1.3294   -9.3755 C.3       7 UNK         0.0273 
     46 CB         24.3867    0.2223   -9.5060 C.3       7 UNK        -0.1935 
     47 C          26.7496    0.9116  -10.0727 C.2       7 UNK         0.5018 
     48 O          27.0164    1.3814  -11.1792 O.2       7 UNK        -0.5186 
     49 N          27.5353    0.0390   -9.4272 N.am      8 UNK        -0.4240 
     50 CA         28.7589   -0.5443   -9.9873 C.3       8 UNK         0.0235 
     51 CB         28.8778   -2.0058   -9.5160 C.3       8 UNK        -0.2000 
     52 C          30.0337    0.2458   -9.6418 C.2       8 UNK         0.4941 
     53 O          31.1197   -0.2899   -9.8541 O.2       8 UNK        -0.5273 
     54 N          29.8948    1.4813   -9.1333 N.am      9 UNK        -0.4262 
     55 CA         30.9136    2.3424   -8.5043 C.3       9 UNK         0.0264 
     56 CB         30.3342    3.7569   -8.3382 C.3       9 UNK        -0.1955 
     57 C          32.3112    2.4206   -9.1497 C.2       9 UNK         0.5031 
     58 O          33.2792    2.6916   -8.4364 O.2       9 UNK        -0.5390 
     59 N          32.4163    2.1465  -10.4567 N.am      10 UNK        -0.4204 
     60 CA         33.6731    1.9542  -11.1866 C.3       10 UNK         0.0237 
     61 CB         33.3584    1.6823  -12.6665 C.3       10 UNK        -0.1985 
     62 C          34.5773    0.8404  -10.6141 C.2       10 UNK         0.4970 
     63 O          35.7920    0.9160  -10.8048 O.2       10 UNK        -0.4914 
     64 N          33.9978   -0.1476   -9.9126 N.am      11 UNK        -0.4285 
     65 CA         34.7409   -1.1590   -9.1425 C.3       11 UNK         0.1007 
     66 C          35.4486   -0.6240   -7.8601 C.2       11 UNK         0.5703 
     67 N          35.1940    0.5995   -7.4079 N.am      11 UNK        -0.7361 
     68 O          36.2607   -1.3337   -7.2712 O.2       11 UNK        -0.4986 
     69 C69        33.8959   -2.4353   -8.8716 C.3       12 UNK        -0.0947 
     70 S70        32.5042   -2.2143   -7.7067 S.3       12 UNK        -0.2240 
     71 C71        33.1094   -3.1177   -6.2524 C.3       12 UNK         0.0194 
     72 H72        25.4724   -4.0540    2.9901 H         1 UNK         0.0906 
     73 H73        25.8929   -5.4991    2.0681 H         1 UNK         0.0906 
     74 H74        27.1174   -4.6928    3.0500 H         1 UNK         0.0906 
     75 H75        26.1167   -5.0588   -0.1216 H         1 UNK         0.3140 
     76 H76        27.6868   -2.8068   -1.0743 H         1 UNK         0.1085 
     77 H77        27.2868   -3.7994   -3.3271 H         1 UNK         0.0836 
     78 H78        26.1994   -4.9832   -2.6425 H         1 UNK         0.0836 
     79 H79        28.7201   -5.4633   -4.5116 H         1 UNK         0.0731 
     80 H80        30.0360   -6.3054   -3.7353 H         1 UNK         0.0731 
     81 H81        31.2840   -5.0305   -5.5827 H         1 UNK         0.1312 
     82 H82        32.6680   -1.1384   -4.4346 H         1 UNK         0.1406 
     83 H83        29.6069   -3.0598   -2.1607 H         1 UNK         0.1631 
     84 H84        32.0315   -0.4295   -2.0412 H         1 UNK         0.0717 
     85 H85        30.5604   -1.0420   -1.3326 H         1 UNK         0.0717 
     86 H86        28.3462   -1.0069   -2.6677 H         1 UNK         0.0934 
     87 H87        27.7254    0.6129   -2.7000 H         1 UNK         0.0934 
     88 H88        28.7822   -0.8502   -5.1797 H         1 UNK         0.0739 
     89 H89        26.1477   -1.0842   -4.0133 H         1 UNK         0.3093 
     90 H90        24.4854   -2.0692   -6.9788 H         1 UNK         0.0818 
     91 H91        25.3207   -3.9091   -4.6846 H         1 UNK         0.0819 
     92 H92        23.9690   -4.1550   -5.7828 H         1 UNK         0.0819 
     93 H93        25.6162   -4.2010   -6.3899 H         1 UNK         0.0819 
     94 H94        23.8482   -1.9666   -4.1336 H         1 UNK         0.3041 
     95 H95        22.7055    1.4156   -4.2569 H         1 UNK         0.0784 
     96 H96        20.7747    0.2123   -5.2995 H         1 UNK         0.0793 
     97 H97        20.9827   -1.1207   -4.1720 H         1 UNK         0.0793 
     98 H98        20.5144    0.4758   -3.5840 H         1 UNK         0.0793 
     99 H99        22.4118   -0.4963   -2.2076 H         1 UNK         0.3024 
    100 H100       24.9987    0.6196   -0.3359 H         1 UNK         0.1171 
    101 H101       23.5868   -0.9519    0.9422 H         1 UNK         0.0786 
    102 H102       22.5686    0.0641   -0.0557 H         1 UNK         0.0786 
    103 H103       22.8884   -1.6068   -0.5299 H         1 UNK         0.0786 
    104 H104       26.3106   -1.1963   -0.1069 H         1 UNK         0.2977 
    105 H105       26.0275    1.3855   -4.6241 H         1 UNK         0.3127 
    106 H106       27.1810    3.6814   -5.8246 H         1 UNK         0.0770 
    107 H107       24.2248    2.8994   -5.6007 H         1 UNK         0.0814 
    108 H108       24.8424    4.5125   -5.9194 H         1 UNK         0.0814 
    109 H109       25.1588    3.7472   -4.3696 H         1 UNK         0.0814 
    110 H110       25.1633    1.0797   -7.2836 H         1 UNK         0.2983 
    111 H111       25.0675    2.2155   -9.8909 H         1 UNK         0.0947 
    112 H112       24.2193   -0.0379  -10.5521 H         1 UNK         0.0806 
    113 H113       23.4285    0.5394   -9.0940 H         1 UNK         0.0806 
    114 H114       24.6889   -0.6878   -8.9871 H         1 UNK         0.0806 
    115 H115       27.2501   -0.3141   -8.5155 H         1 UNK         0.3000 
    116 H116       28.6842   -0.5583  -11.0767 H         1 UNK         0.0850 
    117 H117       29.6911   -2.5198  -10.0301 H         1 UNK         0.0810 
    118 H118       27.9642   -2.5665   -9.7135 H         1 UNK         0.0810 
    119 H119       29.0858   -2.0659   -8.4468 H         1 UNK         0.0810 
    120 H120       28.9435    1.7978   -9.0071 H         1 UNK         0.3040 
    121 H121       31.0735    1.9295   -7.5066 H         1 UNK         0.0766 
    122 H122       31.0588    4.4305   -7.8782 H         1 UNK         0.0812 
    123 H123       29.4550    3.7493   -7.6940 H         1 UNK         0.0812 
    124 H124       30.0458    4.1894   -9.2969 H         1 UNK         0.0812 
    125 H125       31.5691    1.8913  -10.9430 H         1 UNK         0.3205 
    126 H126       34.2327    2.8894  -11.1200 H         1 UNK         0.0754 
    127 H127       34.2752    1.5625  -13.2456 H         1 UNK         0.0769 
    128 H128       32.8012    2.5063  -13.1129 H         1 UNK         0.0769 
    129 H129       32.7717    0.7711  -12.7919 H         1 UNK         0.0769 
    130 H130       32.9840   -0.1644   -9.8136 H         1 UNK         0.2981 
    131 H131       35.5582   -1.4836   -9.7892 H         1 UNK         0.0541 
    132 H132       34.5298    1.2069   -7.8753 H         1 UNK         0.3459 
    133 H133       35.6701    0.9242   -6.5821 H         1 UNK         0.3459 
    134 H134       33.4805   -2.8001   -9.8121 H         1 UNK         0.0612 
    135 H135       34.5414   -3.2385   -8.5124 H         1 UNK         0.0612 
    136 H136       33.3361   -4.1468   -6.5352 H         1 UNK         0.0624 
    137 H137       34.0472   -2.6745   -5.9142 H         1 UNK         0.0624 
@<TRIPOS>BOND
     1    1    2 1    
     2    1   72 1    
     3    1   73 1    
     4    1   74 1    
     5    2    3 2    
     6    2    4 am   BACKBONE|DICT|INTERRES
     7    4    5 1    
     8    4   75 1    
     9    5    6 1    
    10    5   35 1    
    11    5   76 1    
    12    6    7 1    
    13    6   77 1    
    14    6   78 1    
    15    7    8 1    
    16    8    9 1    
    17    8   79 1    
    18    8   80 1    
    19    9   10 ar   
    20    9   14 ar   
    21   10   11 ar   
    22   10   81 1    
    23   11   12 ar   
    24   11   71 1    
    25   12   13 ar   
    26   12   82 1    
    27   13   14 ar   
    28   13   15 1    
    29   14   83 1    
    30   15   16 1    
    31   15   84 1    
    32   15   85 1    
    33   16   17 1    
    34   17   18 1    
    35   17   86 1    
    36   17   87 1    
    37   18   19 1    
    38   18   37 1    
    39   18   88 1    
    40   19   20 am   BACKBONE|DICT|INTERRES
    41   19   89 1    
    42   20   21 2    
    43   20   22 1    
    44   22   23 1    
    45   22   24 1    
    46   22   90 1    
    47   23   91 1    
    48   23   92 1    
    49   23   93 1    
    50   24   25 am   BACKBONE|DICT|INTERRES
    51   24   94 1    
    52   25   26 2    
    53   25   27 1    
    54   27   28 1    
    55   27   29 1    
    56   27   95 1    
    57   28   96 1    
    58   28   97 1    
    59   28   98 1    
    60   29   30 am   BACKBONE|DICT|INTERRES
    61   29   99 1    
    62   30   31 2    
    63   30   32 1    
    64   32   33 1    
    65   32   34 1    
    66   32  100 1    
    67   33  101 1    
    68   33  102 1    
    69   33  103 1    
    70   34   35 am   BACKBONE|DICT|INTERRES
    71   34  104 1    
    72   35   36 2    
    73   37   38 2    
    74   37   39 am   BACKBONE|DICT|INTERRES
    75   39   40 1    
    76   39  105 1    
    77   40   41 1    
    78   40   42 1    
    79   40  106 1    
    80   41  107 1    
    81   41  108 1    
    82   41  109 1    
    83   42   43 2    
    84   42   44 am   BACKBONE|DICT|INTERRES
    85   44   45 1    
    86   44  110 1    
    87   45   46 1    
    88   45   47 1    
    89   45  111 1    
    90   46  112 1    
    91   46  113 1    
    92   46  114 1    
    93   47   48 2    
    94   47   49 am   BACKBONE|DICT|INTERRES
    95   49   50 1    
    96   49  115 1    
    97   50   51 1    
    98   50   52 1    
    99   50  116 1    
   100   51  117 1    
   101   51  118 1    
   102   51  119 1    
   103   52   53 2    
   104   52   54 am   BACKBONE|DICT|INTERRES
   105   54   55 1    
   106   54  120 1    
   107   55   56 1    
   108   55   57 1    
   109   55  121 1    
   110   56  122 1    
   111   56  123 1    
   112   56  124 1    
   113   57   58 2    
   114   57   59 am   BACKBONE|DICT|INTERRES
   115   59   60 1    
   116   59  125 1    
   117   60   61 1    
   118   60   62 1    
   119   60  126 1    
   120   61  127 1    
   121   61  128 1    
   122   61  129 1    
   123   62   63 2    
   124   62   64 am   BACKBONE|DICT|INTERRES
   125   64   65 1    
   126   64  130 1    
   127   65   66 1    
   128   65   69 1    
   129   65  131 1    
   130   66   67 am   BACKBONE|DICT|INTERRES
   131   66   68 2    
   132   67  132 1    
   133   67  133 1    
   134   69   70 1    
   135   69  134 1    
   136   69  135 1    
   137   70   71 1    
   138   71  136 1    
   139   71  137 1    
@<TRIPOS>SUBSTRUCTURE
     1 UNK         1 GROUP             0       ****    0 ROOT    
