@<TRIPOS>MOLECULE
3R137
137   139    1
SMALL
USER_CHARGES


@<TRIPOS>ATOM
      1 CA         29.5553   -0.1336   -2.2750 C.3       0 UNK        -0.2020 
      2 C          28.7959   -1.0665   -1.3426 C.2       0 UNK         0.4855 
      3 O          28.1860   -0.6044   -0.3787 O.2       0 UNK        -0.5197 
      4 N          28.8208   -2.3729   -1.6403 N.am      1 UNK        -0.4892 
      5 CA         28.1605   -3.4658   -0.9050 C.3       1 UNK         0.0835 
      6 C6         28.7571   -3.7336    0.5052 C.3       12 UNK        -0.0855 
      7 S7         30.5772   -3.9292    0.5927 S.3       12 UNK        -0.2931 
      8 C8         30.9895   -5.1515   -0.7050 C.3       12 UNK         0.0378 
      9 C9         31.1393   -4.5101   -2.0805 C.ar      12 UNK        -0.0802 
     10 C10        32.0463   -3.4603   -2.2696 C.ar      12 UNK        -0.0944 
     11 C11        32.1353   -2.8154   -3.5050 C.ar      12 UNK        -0.0787 
     12 C12        31.3353   -3.2463   -4.5626 C.ar      12 UNK        -0.0862 
     13 C13        30.4161   -4.2832   -4.3886 C.ar      12 UNK        -0.0733 
     14 C14        30.3438   -4.9332   -3.1530 C.ar      12 UNK        -0.0832 
     15 C15        29.4741   -4.6674   -5.5228 C.3       12 UNK         0.0240 
     16 S16        27.8033   -3.9659   -5.2878 S.3       12 UNK        -0.2522 
     17 C17        28.1079   -2.1677   -5.3587 C.3       12 UNK        -0.0967 
     18 CA         27.4329   -1.4593   -6.5581 C.3       5 UNK         0.0660 
     19 N          25.9732   -1.6065   -6.5629 N.am      5 UNK        -0.4015 
     20 C          25.1659   -1.2090   -7.5585 C.2       4 UNK         0.4946 
     21 O          25.5657   -0.6997   -8.6048 O.2       4 UNK        -0.5353 
     22 CA         23.6519   -1.3626   -7.3339 C.3       4 UNK         0.0277 
     23 CB         23.2072   -2.8086   -7.6057 C.3       4 UNK        -0.1981 
     24 N          23.2314   -0.9607   -5.9896 N.am      4 UNK        -0.4209 
     25 C          23.3439    0.2811   -5.4943 C.2       3 UNK         0.4942 
     26 O          23.7578    1.2411   -6.1408 O.2       3 UNK        -0.5208 
     27 CA         22.9907    0.4776   -4.0094 C.3       3 UNK         0.0250 
     28 CB         21.5018    0.8234   -3.8508 C.3       3 UNK        -0.1990 
     29 N          23.3223   -0.6774   -3.1671 N.am      3 UNK        -0.4232 
     30 C          24.5484   -1.2032   -3.0434 C.2       2 UNK         0.4993 
     31 O          25.5459   -0.7668   -3.6293 O.2       2 UNK        -0.5286 
     32 CA         24.6632   -2.4588   -2.1727 C.3       2 UNK         0.0209 
     33 CB         24.0083   -3.6730   -2.8584 C.3       2 UNK        -0.1931 
     34 N          26.0768   -2.7315   -1.9572 N.am      2 UNK        -0.4546 
     35 C          26.6197   -3.3407   -0.8992 C.2       1 UNK         0.5154 
     36 O          25.9578   -3.8024    0.0327 O.2       1 UNK        -0.5181 
     37 C          27.8445    0.0242   -6.5684 C.2       5 UNK         0.5014 
     38 O          28.7616    0.3959   -7.3045 O.2       5 UNK        -0.5248 
     39 N          27.1549    0.8345   -5.7516 N.am      6 UNK        -0.4434 
     40 CA         27.3484    2.2810   -5.6606 C.3       6 UNK         0.0363 
     41 CB         26.5646    2.8336   -4.4596 C.3       6 UNK        -0.1936 
     42 C          26.9615    3.0084   -6.9591 C.2       6 UNK         0.5081 
     43 O          27.7313    3.8451   -7.4293 O.2       6 UNK        -0.5248 
     44 N          25.8009    2.6570   -7.5323 N.am      7 UNK        -0.4718 
     45 CA         25.2919    3.2015   -8.7953 C.3       7 UNK         0.0273 
     46 CB         23.8464    2.7296   -9.0187 C.3       7 UNK        -0.1935 
     47 C          26.1682    2.8430  -10.0059 C.2       7 UNK         0.5018 
     48 O          26.3881    3.6980  -10.8646 O.2       7 UNK        -0.5186 
     49 N          26.6698    1.6004  -10.0440 N.am      8 UNK        -0.4240 
     50 CA         27.6059    1.1204  -11.0638 C.3       8 UNK         0.0235 
     51 CB         27.6522   -0.4162  -11.0211 C.3       8 UNK        -0.2000 
     52 C          29.0282    1.6893  -10.9124 C.2       8 UNK         0.4941 
     53 O          29.7892    1.6331  -11.8792 O.2       8 UNK        -0.5273 
     54 N          29.3675    2.1856   -9.7107 N.am      9 UNK        -0.4262 
     55 CA         30.7040    2.5883   -9.2553 C.3       9 UNK         0.0264 
     56 CB         31.1990    3.8411  -10.0083 C.3       9 UNK        -0.1955 
     57 C          31.6846    1.4024   -9.3240 C.2       9 UNK         0.5031 
     58 O          32.7512    1.5034   -9.9337 O.2       9 UNK        -0.5390 
     59 N          31.2617    0.2754   -8.7344 N.am      10 UNK        -0.4204 
     60 CA         31.9089   -1.0343   -8.8504 C.3       10 UNK         0.0237 
     61 CB         30.9426   -2.1117   -8.3340 C.3       10 UNK        -0.1985 
     62 C          33.2978   -1.1497   -8.1912 C.2       10 UNK         0.4970 
     63 O          34.0492   -2.0506   -8.5674 O.2       10 UNK        -0.4914 
     64 N          33.6251   -0.2485   -7.2570 N.am      11 UNK        -0.4285 
     65 CA         34.9726   -0.0747   -6.6938 C.3       11 UNK         0.1007 
     66 C          35.4859    1.3463   -7.0347 C.2       11 UNK         0.5703 
     67 N          36.7565    1.4842   -7.3883 N.am      11 UNK        -0.7361 
     68 O          34.7512    2.3289   -6.9425 O.2       11 UNK        -0.4986 
     69 C69        35.0212   -0.3114   -5.1610 C.3       12 UNK        -0.0947 
     70 S70        34.5023   -1.9938   -4.6833 S.3       12 UNK        -0.2240 
     71 C71        33.0316   -1.6036   -3.6925 C.3       12 UNK         0.0194 
     72 H72        28.8760    0.6054   -2.6997 H         1 UNK         0.0906 
     73 H73        30.0259   -0.6708   -3.0976 H         1 UNK         0.0906 
     74 H74        30.3344    0.3935   -1.7250 H         1 UNK         0.0906 
     75 H75        29.3891   -2.6843   -2.4171 H         1 UNK         0.3140 
     76 H76        28.3260   -4.3670   -1.4915 H         1 UNK         0.1085 
     77 H77        28.3154   -4.6355    0.9333 H         1 UNK         0.0836 
     78 H78        28.4841   -2.9211    1.1809 H         1 UNK         0.0836 
     79 H79        31.9346   -5.6294   -0.4442 H         1 UNK         0.0731 
     80 H80        30.2382   -5.9426   -0.7115 H         1 UNK         0.0731 
     81 H81        32.6523   -3.1204   -1.4406 H         1 UNK         0.1312 
     82 H82        31.4140   -2.7439   -5.5140 H         1 UNK         0.1406 
     83 H83        29.6350   -5.7395   -3.0187 H         1 UNK         0.1631 
     84 H84        29.3961   -5.7541   -5.5789 H         1 UNK         0.0717 
     85 H85        29.8704   -4.3408   -6.4853 H         1 UNK         0.0717 
     86 H86        27.7719   -1.7377   -4.4159 H         1 UNK         0.0934 
     87 H87        29.1791   -1.9825   -5.3897 H         1 UNK         0.0934 
     88 H88        27.8101   -1.9088   -7.4792 H         1 UNK         0.0739 
     89 H89        25.5624   -1.9728   -5.7168 H         1 UNK         0.3093 
     90 H90        23.1458   -0.7099   -8.0485 H         1 UNK         0.0818 
     91 H91        23.4980   -3.1225   -8.6094 H         1 UNK         0.0819 
     92 H92        23.6547   -3.5121   -6.9023 H         1 UNK         0.0819 
     93 H93        22.1238   -2.9097   -7.5389 H         1 UNK         0.0819 
     94 H94        22.8679   -1.6837   -5.3867 H         1 UNK         0.3041 
     95 H95        23.5778    1.3237   -3.6463 H         1 UNK         0.0784 
     96 H96        21.2377    1.6932   -4.4542 H         1 UNK         0.0793 
     97 H97        20.8584    0.0008   -4.1658 H         1 UNK         0.0793 
     98 H98        21.2579    1.0646   -2.8159 H         1 UNK         0.0793 
     99 H99        22.5578   -1.0971   -2.6572 H         1 UNK         0.3024 
    100 H100       24.1785   -2.2595   -1.2140 H         1 UNK         0.1171 
    101 H101       22.9434   -3.5104   -3.0276 H         1 UNK         0.0786 
    102 H102       24.4673   -3.8855   -3.8251 H         1 UNK         0.0786 
    103 H103       24.0999   -4.5694   -2.2446 H         1 UNK         0.0786 
    104 H104       26.6879   -2.3018   -2.6395 H         1 UNK         0.2977 
    105 H105       26.4381    0.4274   -5.1596 H         1 UNK         0.3127 
    106 H106       28.4109    2.4618   -5.4831 H         1 UNK         0.0770 
    107 H107       25.4903    2.6898   -4.5754 H         1 UNK         0.0814 
    108 H108       26.7385    3.9039   -4.3418 H         1 UNK         0.0814 
    109 H109       26.8682    2.3507   -3.5305 H         1 UNK         0.0814 
    110 H110       25.1946    1.9962   -7.0493 H         1 UNK         0.2983 
    111 H111       25.2853    4.2900   -8.7070 H         1 UNK         0.0947 
    112 H112       23.7819    1.6420   -9.0717 H         1 UNK         0.0806 
    113 H113       23.4429    3.1284   -9.9504 H         1 UNK         0.0806 
    114 H114       23.1923    3.0635   -8.2131 H         1 UNK         0.0806 
    115 H115       26.3799    0.9281   -9.3377 H         1 UNK         0.3000 
    116 H116       27.2326    1.4256  -12.0438 H         1 UNK         0.0850 
    117 H117       28.3212   -0.8113  -11.7868 H         1 UNK         0.0810 
    118 H118       26.6669   -0.8479  -11.1979 H         1 UNK         0.0810 
    119 H119       28.0086   -0.7798  -10.0562 H         1 UNK         0.0810 
    120 H120       28.6594    2.1652   -8.9875 H         1 UNK         0.3040 
    121 H121       30.6046    2.8521   -8.2011 H         1 UNK         0.0766 
    122 H122       31.3601    3.6438  -11.0684 H         1 UNK         0.0812 
    123 H123       32.1463    4.1912   -9.5966 H         1 UNK         0.0812 
    124 H124       30.4848    4.6601   -9.9237 H         1 UNK         0.0812 
    125 H125       30.3650    0.3004   -8.2496 H         1 UNK         0.3205 
    126 H126       32.0666   -1.2199   -9.9151 H         1 UNK         0.0754 
    127 H127       31.4216   -3.0907   -8.2827 H         1 UNK         0.0769 
    128 H128       30.0786   -2.2091   -8.9916 H         1 UNK         0.0769 
    129 H129       30.5710   -1.8667   -7.3416 H         1 UNK         0.0769 
    130 H130       32.9737    0.4949   -7.0524 H         1 UNK         0.2981 
    131 H131       35.6590   -0.7871   -7.1558 H         1 UNK         0.0541 
    132 H132       37.1079    2.4053   -7.5987 H         1 UNK         0.3459 
    133 H133       37.3710    0.6874   -7.4522 H         1 UNK         0.3459 
    134 H134       34.4126    0.4293   -4.6390 H         1 UNK         0.0612 
    135 H135       36.0396   -0.1730   -4.7932 H         1 UNK         0.0612 
    136 H136       32.4572   -0.8189   -4.1877 H         1 UNK         0.0624 
    137 H137       33.3451   -1.1974   -2.7296 H         1 UNK         0.0624 
@<TRIPOS>BOND
     1    1    2 1    
     2    1   72 1    
     3    1   73 1    
     4    1   74 1    
     5    2    3 2    
     6    2    4 am   BACKBONE|DICT|INTERRES
     7    4    5 1    
     8    4   75 1    
     9    5    6 1    
    10    5   35 1    
    11    5   76 1    
    12    6    7 1    
    13    6   77 1    
    14    6   78 1    
    15    7    8 1    
    16    8    9 1    
    17    8   79 1    
    18    8   80 1    
    19    9   10 ar   
    20    9   14 ar   
    21   10   11 ar   
    22   10   81 1    
    23   11   12 ar   
    24   11   71 1    
    25   12   13 ar   
    26   12   82 1    
    27   13   14 ar   
    28   13   15 1    
    29   14   83 1    
    30   15   16 1    
    31   15   84 1    
    32   15   85 1    
    33   16   17 1    
    34   17   18 1    
    35   17   86 1    
    36   17   87 1    
    37   18   19 1    
    38   18   37 1    
    39   18   88 1    
    40   19   20 am   BACKBONE|DICT|INTERRES
    41   19   89 1    
    42   20   21 2    
    43   20   22 1    
    44   22   23 1    
    45   22   24 1    
    46   22   90 1    
    47   23   91 1    
    48   23   92 1    
    49   23   93 1    
    50   24   25 am   BACKBONE|DICT|INTERRES
    51   24   94 1    
    52   25   26 2    
    53   25   27 1    
    54   27   28 1    
    55   27   29 1    
    56   27   95 1    
    57   28   96 1    
    58   28   97 1    
    59   28   98 1    
    60   29   30 am   BACKBONE|DICT|INTERRES
    61   29   99 1    
    62   30   31 2    
    63   30   32 1    
    64   32   33 1    
    65   32   34 1    
    66   32  100 1    
    67   33  101 1    
    68   33  102 1    
    69   33  103 1    
    70   34   35 am   BACKBONE|DICT|INTERRES
    71   34  104 1    
    72   35   36 2    
    73   37   38 2    
    74   37   39 am   BACKBONE|DICT|INTERRES
    75   39   40 1    
    76   39  105 1    
    77   40   41 1    
    78   40   42 1    
    79   40  106 1    
    80   41  107 1    
    81   41  108 1    
    82   41  109 1    
    83   42   43 2    
    84   42   44 am   BACKBONE|DICT|INTERRES
    85   44   45 1    
    86   44  110 1    
    87   45   46 1    
    88   45   47 1    
    89   45  111 1    
    90   46  112 1    
    91   46  113 1    
    92   46  114 1    
    93   47   48 2    
    94   47   49 am   BACKBONE|DICT|INTERRES
    95   49   50 1    
    96   49  115 1    
    97   50   51 1    
    98   50   52 1    
    99   50  116 1    
   100   51  117 1    
   101   51  118 1    
   102   51  119 1    
   103   52   53 2    
   104   52   54 am   BACKBONE|DICT|INTERRES
   105   54   55 1    
   106   54  120 1    
   107   55   56 1    
   108   55   57 1    
   109   55  121 1    
   110   56  122 1    
   111   56  123 1    
   112   56  124 1    
   113   57   58 2    
   114   57   59 am   BACKBONE|DICT|INTERRES
   115   59   60 1    
   116   59  125 1    
   117   60   61 1    
   118   60   62 1    
   119   60  126 1    
   120   61  127 1    
   121   61  128 1    
   122   61  129 1    
   123   62   63 2    
   124   62   64 am   BACKBONE|DICT|INTERRES
   125   64   65 1    
   126   64  130 1    
   127   65   66 1    
   128   65   69 1    
   129   65  131 1    
   130   66   67 am   BACKBONE|DICT|INTERRES
   131   66   68 2    
   132   67  132 1    
   133   67  133 1    
   134   69   70 1    
   135   69  134 1    
   136   69  135 1    
   137   70   71 1    
   138   71  136 1    
   139   71  137 1    
@<TRIPOS>SUBSTRUCTURE
     1 UNK         1 GROUP             0       ****    0 ROOT    
