@<TRIPOS>MOLECULE
3R137
137   139    1
SMALL
USER_CHARGES


@<TRIPOS>ATOM
      1 CA         30.4033    0.4805   -0.8970 C.3       0 UNK        -0.2020 
      2 C          29.7380   -0.7536   -1.4833 C.2       0 UNK         0.4855 
      3 O          29.4025   -0.7699   -2.6661 O.2       0 UNK        -0.5197 
      4 N          29.5335   -1.7877   -0.6592 N.am      1 UNK        -0.4892 
      5 CA         28.9049   -3.0569   -1.0409 C.3       1 UNK         0.0835 
      6 C6         29.4114   -4.2411   -0.1750 C.3       12 UNK        -0.0855 
      7 S7         31.2230   -4.4568   -0.2234 S.3       12 UNK        -0.2931 
      8 C8         31.4132   -5.7802   -1.4595 C.3       12 UNK         0.0378 
      9 C9         31.2846   -5.2481   -2.8791 C.ar      12 UNK        -0.0802 
     10 C10        32.3430   -4.5337   -3.4495 C.ar      12 UNK        -0.0944 
     11 C11        32.2562   -4.0545   -4.7593 C.ar      12 UNK        -0.0787 
     12 C12        31.1012   -4.3125   -5.5035 C.ar      12 UNK        -0.0862 
     13 C13        30.0219   -4.9937   -4.9356 C.ar      12 UNK        -0.0733 
     14 C14        30.1226   -5.4730   -3.6255 C.ar      12 UNK        -0.0832 
     15 C15        28.7451   -5.1910   -5.7409 C.3       12 UNK         0.0240 
     16 S16        27.3992   -4.1012   -5.1726 S.3       12 UNK        -0.2522 
     17 C17        28.0953   -2.4289   -5.4110 C.3       12 UNK        -0.0967 
     18 CA         27.4413   -1.6378   -6.5668 C.3       5 UNK         0.0660 
     19 N          25.9861   -1.5291   -6.4248 N.am      5 UNK        -0.4015 
     20 C          25.1538   -1.0645   -7.3668 C.2       4 UNK         0.4946 
     21 O          25.5193   -0.6922   -8.4803 O.2       4 UNK        -0.5353 
     22 CA         23.6668   -0.9581   -6.9915 C.3       4 UNK         0.0277 
     23 CB         22.9764   -2.3254   -7.1187 C.3       4 UNK        -0.1981 
     24 N          23.4662   -0.4250   -5.6425 N.am      4 UNK        -0.4209 
     25 C          23.7799    0.8240   -5.2658 C.2       3 UNK         0.4942 
     26 O          24.2002    1.6865   -6.0353 O.2       3 UNK        -0.5208 
     27 CA         23.6525    1.1485   -3.7659 C.3       3 UNK         0.0250 
     28 CB         22.2282    1.6205   -3.4332 C.3       3 UNK        -0.1990 
     29 N          24.0180    0.0244   -2.8943 N.am      3 UNK        -0.4232 
     30 C          25.2227   -0.5624   -2.8850 C.2       2 UNK         0.4993 
     31 O          26.1627   -0.2027   -3.5981 O.2       2 UNK        -0.5286 
     32 CA         25.3833   -1.7923   -1.9873 C.3       2 UNK         0.0209 
     33 CB         24.6172   -2.9955   -2.5763 C.3       2 UNK        -0.1931 
     34 N          26.8073   -2.0997   -1.8751 N.am      2 UNK        -0.4546 
     35 C          27.3682   -2.9207   -0.9834 C.2       1 UNK         0.5154 
     36 O          26.7240   -3.5234   -0.1217 O.2       1 UNK        -0.5181 
     37 C          28.0919   -0.2469   -6.6908 C.2       5 UNK         0.5014 
     38 O          28.9316   -0.0419   -7.5682 O.2       5 UNK        -0.5248 
     39 N          27.6627    0.6944   -5.8398 N.am      6 UNK        -0.4434 
     40 CA         28.0887    2.0941   -5.8608 C.3       6 UNK         0.0363 
     41 CB         27.5286    2.8123   -4.6242 C.3       6 UNK        -0.1936 
     42 C          27.6951    2.8373   -7.1502 C.2       6 UNK         0.5081 
     43 O          28.4101    3.7532   -7.5536 O.2       6 UNK        -0.5248 
     44 N          26.5850    2.4346   -7.7812 N.am      7 UNK        -0.4718 
     45 CA         26.1397    2.9552   -9.0715 C.3       7 UNK         0.0273 
     46 CB         24.6193    2.7674   -9.2092 C.3       7 UNK        -0.1935 
     47 C          26.8853    2.3017  -10.2463 C.2       7 UNK         0.5018 
     48 O          27.4462    3.0183  -11.0758 O.2       7 UNK        -0.5186 
     49 N          26.8477    0.9637  -10.3211 N.am      8 UNK        -0.4240 
     50 CA         27.3111    0.1976  -11.4802 C.3       8 UNK         0.0235 
     51 CB         26.5976   -1.1643  -11.5159 C.3       8 UNK        -0.2000 
     52 C          28.8325    0.0032  -11.5266 C.2       8 UNK         0.4941 
     53 O          29.4243    0.1723  -12.5937 O.2       8 UNK        -0.5273 
     54 N          29.4336   -0.3768  -10.3920 N.am      9 UNK        -0.4262 
     55 CA         30.8568   -0.7151  -10.2869 C.3       9 UNK         0.0264 
     56 CB         31.0046   -1.9811   -9.4247 C.3       9 UNK        -0.1955 
     57 C          31.7026    0.4375   -9.7197 C.2       9 UNK         0.5031 
     58 O          32.9297    0.3639   -9.7967 O.2       9 UNK        -0.5390 
     59 N          31.0453    1.4682   -9.1650 N.am      10 UNK        -0.4204 
     60 CA         31.6247    2.6480   -8.5081 C.3       10 UNK         0.0237 
     61 CB         32.4580    3.4909   -9.4983 C.3       10 UNK        -0.1985 
     62 C          32.3851    2.3113   -7.2093 C.2       10 UNK         0.4970 
     63 O          33.3158    3.0314   -6.8421 O.2       10 UNK        -0.4914 
     64 N          31.9801    1.2255   -6.5393 N.am      11 UNK        -0.4285 
     65 CA         32.5667    0.7497   -5.2790 C.3       11 UNK         0.1007 
     66 C          32.2098    1.6552   -4.0688 C.2       11 UNK         0.5703 
     67 N          33.0516    1.6706   -3.0436 N.am      11 UNK        -0.7361 
     68 O          31.1828    2.3298   -4.0395 O.2       11 UNK        -0.4986 
     69 C69        32.1994   -0.7326   -5.0177 C.3       12 UNK        -0.0947 
     70 S70        32.8921   -1.8129   -6.3151 S.3       12 UNK        -0.2240 
     71 C71        33.4202   -3.2767   -5.3647 C.3       12 UNK         0.0194 
     72 H72        30.1758    0.5930    0.1627 H         1 UNK         0.0906 
     73 H73        31.4841    0.4109   -1.0127 H         1 UNK         0.0906 
     74 H74        30.0609    1.3772   -1.4137 H         1 UNK         0.0906 
     75 H75        29.8232   -1.7209    0.3063 H         1 UNK         0.3140 
     76 H76        29.1634   -3.2766   -2.0794 H         1 UNK         0.1085 
     77 H77        29.1302   -4.0955    0.8699 H         1 UNK         0.0836 
     78 H78        28.9316   -5.1714   -0.4847 H         1 UNK         0.0836 
     79 H79        32.3989   -6.2315   -1.3369 H         1 UNK         0.0731 
     80 H80        30.6929   -6.5776   -1.2703 H         1 UNK         0.0731 
     81 H81        33.2362   -4.3513   -2.8673 H         1 UNK         0.1312 
     82 H82        31.0293   -3.9527   -6.5208 H         1 UNK         0.1406 
     83 H83        29.2918   -6.0095   -3.1874 H         1 UNK         0.1631 
     84 H84        28.4198   -6.2287   -5.6559 H         1 UNK         0.0717 
     85 H85        28.9223   -5.0121   -6.8027 H         1 UNK         0.0717 
     86 H86        27.9708   -1.8953   -4.4706 H         1 UNK         0.0934 
     87 H87        29.1716   -2.4861   -5.5662 H         1 UNK         0.0934 
     88 H88        27.6402   -2.1738   -7.4974 H         1 UNK         0.0739 
     89 H89        25.6119   -1.7819   -5.5234 H         1 UNK         0.3093 
     90 H90        23.1962   -0.2707   -7.6979 H         1 UNK         0.0818 
     91 H91        21.9045   -2.2469   -6.9358 H         1 UNK         0.0819 
     92 H92        23.1022   -2.7319   -8.1234 H         1 UNK         0.0819 
     93 H93        23.3844   -3.0557   -6.4187 H         1 UNK         0.0819 
     94 H94        23.1081   -1.0600   -4.9446 H         1 UNK         0.3041 
     95 H95        24.3417    1.9676   -3.5506 H         1 UNK         0.0784 
     96 H96        21.9436    2.4688   -4.0577 H         1 UNK         0.0793 
     97 H97        21.4907    0.8337   -3.5966 H         1 UNK         0.0793 
     98 H98        22.1498    1.9452   -2.3954 H         1 UNK         0.0793 
     99 H99        23.2954   -0.3282   -2.2826 H         1 UNK         0.3024 
    100 H100       24.9956   -1.5510   -0.9951 H         1 UNK         0.1171 
    101 H101       24.7151   -3.8809   -1.9483 H         1 UNK         0.0786 
    102 H102       24.9779   -3.2554   -3.5715 H         1 UNK         0.0786 
    103 H103       23.5503   -2.7858   -2.6595 H         1 UNK         0.0786 
    104 H104       27.4077   -1.5580   -2.4926 H         1 UNK         0.2977 
    105 H105       27.0160    0.4244   -5.0994 H         1 UNK         0.3127 
    106 H106       29.1780    2.1058   -5.7988 H         1 UNK         0.0770 
    107 H107       26.4384    2.8251   -4.6266 H         1 UNK         0.0814 
    108 H108       27.8706    3.8473   -4.5867 H         1 UNK         0.0814 
    109 H109       27.8584    2.3275   -3.7047 H         1 UNK         0.0814 
    110 H110       26.0100    1.7221   -7.3482 H         1 UNK         0.2983 
    111 H111       26.3430    4.0281   -9.1066 H         1 UNK         0.0947 
    112 H112       24.2634    3.1466  -10.1680 H         1 UNK         0.0806 
    113 H113       24.0843    3.3076   -8.4279 H         1 UNK         0.0806 
    114 H114       24.3285    1.7186   -9.1434 H         1 UNK         0.0806 
    115 H115       26.3659    0.4373   -9.5920 H         1 UNK         0.3000 
    116 H116       27.0235    0.7411  -12.3832 H         1 UNK         0.0850 
    117 H117       26.8900   -1.7361  -12.3977 H         1 UNK         0.0810 
    118 H118       25.5148   -1.0431  -11.5520 H         1 UNK         0.0810 
    119 H119       26.8353   -1.7700  -10.6404 H         1 UNK         0.0810 
    120 H120       28.8953   -0.4384   -9.5331 H         1 UNK         0.3040 
    121 H121       31.2585   -0.9449  -11.2761 H         1 UNK         0.0766 
    122 H122       32.0500   -2.2846   -9.3543 H         1 UNK         0.0812 
    123 H123       30.6435   -1.8279   -8.4080 H         1 UNK         0.0812 
    124 H124       30.4537   -2.8186   -9.8526 H         1 UNK         0.0812 
    125 H125       30.0383    1.3889   -9.1112 H         1 UNK         0.3205 
    126 H126       30.7839    3.2656   -8.2002 H         1 UNK         0.0754 
    127 H127       32.7445    4.4449   -9.0540 H         1 UNK         0.0769 
    128 H128       31.8916    3.7142  -10.4025 H         1 UNK         0.0769 
    129 H129       33.3767    2.9832   -9.7932 H         1 UNK         0.0769 
    130 H130       31.1977    0.6948   -6.8957 H         1 UNK         0.2981 
    131 H131       33.6513    0.8030   -5.3954 H         1 UNK         0.0541 
    132 H132       33.8999    1.1265   -3.0554 H         1 UNK         0.3459 
    133 H133       32.8445    2.2588   -2.2525 H         1 UNK         0.3459 
    134 H134       31.1165   -0.8668   -4.9843 H         1 UNK         0.0612 
    135 H135       32.5795   -1.0593   -4.0480 H         1 UNK         0.0612 
    136 H136       33.9727   -3.9416   -6.0295 H         1 UNK         0.0624 
    137 H137       34.1207   -2.9580   -4.5913 H         1 UNK         0.0624 
@<TRIPOS>BOND
     1    1    2 1    
     2    1   72 1    
     3    1   73 1    
     4    1   74 1    
     5    2    3 2    
     6    2    4 am   BACKBONE|DICT|INTERRES
     7    4    5 1    
     8    4   75 1    
     9    5    6 1    
    10    5   35 1    
    11    5   76 1    
    12    6    7 1    
    13    6   77 1    
    14    6   78 1    
    15    7    8 1    
    16    8    9 1    
    17    8   79 1    
    18    8   80 1    
    19    9   10 ar   
    20    9   14 ar   
    21   10   11 ar   
    22   10   81 1    
    23   11   12 ar   
    24   11   71 1    
    25   12   13 ar   
    26   12   82 1    
    27   13   14 ar   
    28   13   15 1    
    29   14   83 1    
    30   15   16 1    
    31   15   84 1    
    32   15   85 1    
    33   16   17 1    
    34   17   18 1    
    35   17   86 1    
    36   17   87 1    
    37   18   19 1    
    38   18   37 1    
    39   18   88 1    
    40   19   20 am   BACKBONE|DICT|INTERRES
    41   19   89 1    
    42   20   21 2    
    43   20   22 1    
    44   22   23 1    
    45   22   24 1    
    46   22   90 1    
    47   23   91 1    
    48   23   92 1    
    49   23   93 1    
    50   24   25 am   BACKBONE|DICT|INTERRES
    51   24   94 1    
    52   25   26 2    
    53   25   27 1    
    54   27   28 1    
    55   27   29 1    
    56   27   95 1    
    57   28   96 1    
    58   28   97 1    
    59   28   98 1    
    60   29   30 am   BACKBONE|DICT|INTERRES
    61   29   99 1    
    62   30   31 2    
    63   30   32 1    
    64   32   33 1    
    65   32   34 1    
    66   32  100 1    
    67   33  101 1    
    68   33  102 1    
    69   33  103 1    
    70   34   35 am   BACKBONE|DICT|INTERRES
    71   34  104 1    
    72   35   36 2    
    73   37   38 2    
    74   37   39 am   BACKBONE|DICT|INTERRES
    75   39   40 1    
    76   39  105 1    
    77   40   41 1    
    78   40   42 1    
    79   40  106 1    
    80   41  107 1    
    81   41  108 1    
    82   41  109 1    
    83   42   43 2    
    84   42   44 am   BACKBONE|DICT|INTERRES
    85   44   45 1    
    86   44  110 1    
    87   45   46 1    
    88   45   47 1    
    89   45  111 1    
    90   46  112 1    
    91   46  113 1    
    92   46  114 1    
    93   47   48 2    
    94   47   49 am   BACKBONE|DICT|INTERRES
    95   49   50 1    
    96   49  115 1    
    97   50   51 1    
    98   50   52 1    
    99   50  116 1    
   100   51  117 1    
   101   51  118 1    
   102   51  119 1    
   103   52   53 2    
   104   52   54 am   BACKBONE|DICT|INTERRES
   105   54   55 1    
   106   54  120 1    
   107   55   56 1    
   108   55   57 1    
   109   55  121 1    
   110   56  122 1    
   111   56  123 1    
   112   56  124 1    
   113   57   58 2    
   114   57   59 am   BACKBONE|DICT|INTERRES
   115   59   60 1    
   116   59  125 1    
   117   60   61 1    
   118   60   62 1    
   119   60  126 1    
   120   61  127 1    
   121   61  128 1    
   122   61  129 1    
   123   62   63 2    
   124   62   64 am   BACKBONE|DICT|INTERRES
   125   64   65 1    
   126   64  130 1    
   127   65   66 1    
   128   65   69 1    
   129   65  131 1    
   130   66   67 am   BACKBONE|DICT|INTERRES
   131   66   68 2    
   132   67  132 1    
   133   67  133 1    
   134   69   70 1    
   135   69  134 1    
   136   69  135 1    
   137   70   71 1    
   138   71  136 1    
   139   71  137 1    
@<TRIPOS>SUBSTRUCTURE
     1 UNK         1 GROUP             0       ****    0 ROOT    
