@<TRIPOS>MOLECULE
3R137
137   139    1
SMALL
USER_CHARGES


@<TRIPOS>ATOM
      1 CA         26.7777   -3.8817   -8.4235 C.3       0 UNK        -0.2020 
      2 C          26.7102   -4.6692   -7.1245 C.2       0 UNK         0.4855 
      3 O          26.0662   -5.7175   -7.0723 O.2       0 UNK        -0.5197 
      4 N          27.3691   -4.1654   -6.0739 N.am      1 UNK        -0.4892 
      5 CA         27.3109   -4.6991   -4.7083 C.3       1 UNK         0.0835 
      6 C6         28.3665   -4.0406   -3.7894 C.3       12 UNK        -0.0855 
      7 S7         30.0754   -4.3783   -4.3232 S.3       12 UNK        -0.2931 
      8 C8         31.0178   -3.6623   -2.9376 C.3       12 UNK         0.0378 
      9 C9         30.8209   -2.1561   -2.8376 C.ar      12 UNK        -0.0802 
     10 C10        31.5066   -1.3012   -3.7042 C.ar      12 UNK        -0.0944 
     11 C11        31.3153    0.0825   -3.6414 C.ar      12 UNK        -0.0787 
     12 C12        30.4446    0.6085   -2.6837 C.ar      12 UNK        -0.0862 
     13 C13        29.7248   -0.2385   -1.8347 C.ar      12 UNK        -0.0733 
     14 C14        29.9311   -1.6189   -1.9029 C.ar      12 UNK        -0.0832 
     15 C15        28.6885    0.3304   -0.8763 C.3       12 UNK         0.0240 
     16 S16        27.0069    0.2450   -1.5834 S.3       12 UNK        -0.2522 
     17 C17        27.1402    1.3868   -3.0030 C.3       12 UNK        -0.0967 
     18 CA         27.2062    0.6207   -4.3611 C.3       5 UNK         0.0660 
     19 N          25.9460   -0.0814   -4.6484 N.am      5 UNK        -0.4015 
     20 C          24.7730    0.4910   -4.9671 C.2       4 UNK         0.4946 
     21 O          24.5916    1.7046   -5.0824 O.2       4 UNK        -0.5353 
     22 CA         23.5830   -0.4604   -5.1463 C.3       4 UNK         0.0277 
     23 CB         23.7289   -1.3039   -6.4262 C.3       4 UNK        -0.1981 
     24 N          23.4276   -1.3267   -3.9754 N.am      4 UNK        -0.4209 
     25 C          22.8809   -0.9295   -2.8135 C.2       3 UNK         0.4942 
     26 O          22.4071    0.1949   -2.6418 O.2       3 UNK        -0.5208 
     27 CA         22.8267   -1.9430   -1.6528 C.3       3 UNK         0.0250 
     28 CB         21.4863   -1.8804   -0.8960 C.3       3 UNK        -0.1990 
     29 N          23.0374   -3.3089   -2.1309 N.am      3 UNK        -0.4232 
     30 C          24.0095   -4.1324   -1.7241 C.2       2 UNK         0.4993 
     31 O          24.7785   -3.8908   -0.7922 O.2       2 UNK        -0.5286 
     32 CA         24.1975   -5.4349   -2.5273 C.3       2 UNK         0.0209 
     33 CB         23.0353   -5.7601   -3.4955 C.3       2 UNK        -0.1931 
     34 N          25.4731   -5.4306   -3.2564 N.am      2 UNK        -0.4546 
     35 C          25.9086   -4.4874   -4.1069 C.2       1 UNK         0.5154 
     36 O          25.2787   -3.4630   -4.3905 O.2       1 UNK        -0.5181 
     37 C          27.6692    1.4879   -5.5637 C.2       5 UNK         0.5014 
     38 O          27.3587    1.1522   -6.7110 O.2       5 UNK        -0.5248 
     39 N          28.4178    2.5674   -5.2861 N.am      6 UNK        -0.4434 
     40 CA         28.8074    3.6526   -6.1949 C.3       6 UNK         0.0363 
     41 CB         27.6022    4.6029   -6.3854 C.3       6 UNK        -0.1936 
     42 C          29.4380    3.1787   -7.5224 C.2       6 UNK         0.5081 
     43 O          30.2024    2.2112   -7.5304 O.2       6 UNK        -0.5248 
     44 N          29.1080    3.8677   -8.6226 N.am      7 UNK        -0.4718 
     45 CA         29.5757    3.5843   -9.9813 C.3       7 UNK         0.0273 
     46 CB         29.2819    4.8021  -10.8729 C.3       7 UNK        -0.1935 
     47 C          28.9780    2.3070  -10.5990 C.2       7 UNK         0.5018 
     48 O          29.5103    1.8349  -11.6034 O.2       7 UNK        -0.5186 
     49 N          27.9023    1.7646  -10.0067 N.am      8 UNK        -0.4240 
     50 CA         27.3425    0.4625  -10.3775 C.3       8 UNK         0.0235 
     51 CB         25.9265    0.3037   -9.7977 C.3       8 UNK        -0.2000 
     52 C          28.2620   -0.6806   -9.9214 C.2       8 UNK         0.4941 
     53 O          28.5090   -1.6058  -10.6952 O.2       8 UNK        -0.5273 
     54 N          28.7692   -0.5788   -8.6848 N.am      9 UNK        -0.4262 
     55 CA         29.7821   -1.4789   -8.1348 C.3       9 UNK         0.0264 
     56 CB         29.7431   -1.4003   -6.6061 C.3       9 UNK        -0.1955 
     57 C          31.1928   -1.1756   -8.6738 C.2       9 UNK         0.5031 
     58 O          31.9411   -2.1149   -8.9458 O.2       9 UNK        -0.5390 
     59 N          31.5133    0.1180   -8.8395 N.am      10 UNK        -0.4204 
     60 CA         32.7371    0.6701   -9.4372 C.3       10 UNK         0.0237 
     61 CB         32.8220    0.3138  -10.9373 C.3       10 UNK        -0.1985 
     62 C          34.0188    0.3097   -8.6599 C.2       10 UNK         0.4970 
     63 O          35.0104   -0.1133   -9.2582 O.2       10 UNK        -0.4914 
     64 N          33.9729    0.4895   -7.3352 N.am      11 UNK        -0.4285 
     65 CA         35.1121    0.3196   -6.4218 C.3       11 UNK         0.1007 
     66 C          36.1788    1.4442   -6.5550 C.2       11 UNK         0.5703 
     67 N          37.3980    1.1965   -6.0947 N.am      11 UNK        -0.7361 
     68 O          35.9130    2.5388   -7.0499 O.2       11 UNK        -0.4986 
     69 C69        34.6452    0.1004   -4.9554 C.3       12 UNK        -0.0947 
     70 S70        33.6721    1.4716   -4.2356 S.3       12 UNK        -0.2240 
     71 C71        31.9661    1.0061   -4.6622 C.3       12 UNK         0.0194 
     72 H72        25.8578   -4.0086   -8.9939 H         1 UNK         0.0906 
     73 H73        26.9036   -2.8166   -8.2329 H         1 UNK         0.0906 
     74 H74        27.6100   -4.2265   -9.0365 H         1 UNK         0.0906 
     75 H75        27.9006   -3.3162   -6.1809 H         1 UNK         0.3140 
     76 H76        27.5057   -5.7728   -4.7595 H         1 UNK         0.1085 
     77 H77        28.2158   -2.9597   -3.7534 H         1 UNK         0.0836 
     78 H78        28.2612   -4.4001   -2.7635 H         1 UNK         0.0836 
     79 H79        32.0770   -3.8819   -3.0797 H         1 UNK         0.0731 
     80 H80        30.7277   -4.1533   -2.0073 H         1 UNK         0.0731 
     81 H81        32.1561   -1.7276   -4.4538 H         1 UNK         0.1312 
     82 H82        30.2953    1.6775   -2.6306 H         1 UNK         0.1406 
     83 H83        29.3739   -2.2758   -1.2486 H         1 UNK         0.1631 
     84 H84        28.9264    1.3633   -0.6169 H         1 UNK         0.0717 
     85 H85        28.7066   -0.2296    0.0598 H         1 UNK         0.0717 
     86 H86        26.2827    2.0616   -2.9836 H         1 UNK         0.0934 
     87 H87        28.0062    2.0226   -2.8310 H         1 UNK         0.0934 
     88 H88        27.9673   -0.1555   -4.2704 H         1 UNK         0.0739 
     89 H89        25.9744   -1.0890   -4.5789 H         1 UNK         0.3093 
     90 H90        22.6802    0.1457   -5.2520 H         1 UNK         0.0818 
     91 H91        22.8720   -1.9629   -6.5654 H         1 UNK         0.0819 
     92 H92        23.7906   -0.6623   -7.3062 H         1 UNK         0.0819 
     93 H93        24.6265   -1.9225   -6.4162 H         1 UNK         0.0819 
     94 H94        23.8875   -2.2333   -4.0246 H         1 UNK         0.3041 
     95 H95        23.6233   -1.6553   -0.9633 H         1 UNK         0.0784 
     96 H96        21.3196   -0.8905   -0.4691 H         1 UNK         0.0793 
     97 H97        20.6431   -2.1012   -1.5515 H         1 UNK         0.0793 
     98 H98        21.4652   -2.5925   -0.0709 H         1 UNK         0.0793 
     99 H99        22.4650   -3.5989   -2.9117 H         1 UNK         0.3024 
    100 H100       24.2515   -6.2384   -1.7906 H         1 UNK         0.1171 
    101 H101       23.1813   -6.7357   -3.9597 H         1 UNK         0.0786 
    102 H102       22.0802   -5.8015   -2.9698 H         1 UNK         0.0786 
    103 H103       22.9462   -5.0300   -4.3010 H         1 UNK         0.0786 
    104 H104       26.0854   -6.2088   -3.0537 H         1 UNK         0.2977 
    105 H105       28.6757    2.7188   -4.3232 H         1 UNK         0.3127 
    106 H106       29.5914    4.2107   -5.6813 H         1 UNK         0.0770 
    107 H107       26.7978    4.1284   -6.9498 H         1 UNK         0.0814 
    108 H108       27.8855    5.5201   -6.9030 H         1 UNK         0.0814 
    109 H109       27.1883    4.9066   -5.4237 H         1 UNK         0.0814 
    110 H110       28.4715    4.6454   -8.5214 H         1 UNK         0.2983 
    111 H111       30.6580    3.4421   -9.9425 H         1 UNK         0.0947 
    112 H112       29.6516    4.6427  -11.8870 H         1 UNK         0.0806 
    113 H113       29.7683    5.7004  -10.4922 H         1 UNK         0.0806 
    114 H114       28.2120    5.0021  -10.9446 H         1 UNK         0.0806 
    115 H115       27.5360    2.2030   -9.1733 H         1 UNK         0.3000 
    116 H116       27.2673    0.4172  -11.4663 H         1 UNK         0.0850 
    117 H117       25.4918   -0.6518  -10.0943 H         1 UNK         0.0810 
    118 H118       25.2608    1.0877  -10.1587 H         1 UNK         0.0810 
    119 H119       25.9209    0.3361   -8.7084 H         1 UNK         0.0810 
    120 H120       28.4660    0.1924   -8.0958 H         1 UNK         0.3040 
    121 H121       29.5335   -2.5020   -8.4246 H         1 UNK         0.0766 
    122 H122       29.9551   -0.3929   -6.2527 H         1 UNK         0.0812 
    123 H123       30.4815   -2.0732   -6.1718 H         1 UNK         0.0812 
    124 H124       28.7681   -1.6829   -6.2137 H         1 UNK         0.0812 
    125 H125       30.8606    0.8155   -8.4813 H         1 UNK         0.3205 
    126 H126       32.6404    1.7546   -9.3674 H         1 UNK         0.0754 
    127 H127       33.6584    0.8260  -11.4145 H         1 UNK         0.0769 
    128 H128       31.9175    0.6101  -11.4676 H         1 UNK         0.0769 
    129 H129       32.9641   -0.7561  -11.0926 H         1 UNK         0.0769 
    130 H130       33.1421    0.8924   -6.9315 H         1 UNK         0.2981 
    131 H131       35.6128   -0.6016   -6.7269 H         1 UNK         0.0541 
    132 H132       38.1019    1.9148   -6.1639 H         1 UNK         0.3459 
    133 H133       37.6300    0.3070   -5.6808 H         1 UNK         0.3459 
    134 H134       35.5084   -0.0652   -4.3087 H         1 UNK         0.0612 
    135 H135       34.0725   -0.8222   -4.8960 H         1 UNK         0.0612 
    136 H136       31.9419    0.5377   -5.6437 H         1 UNK         0.0624 
    137 H137       31.3796    1.9207   -4.7613 H         1 UNK         0.0624 
@<TRIPOS>BOND
     1    1    2 1    
     2    1   72 1    
     3    1   73 1    
     4    1   74 1    
     5    2    3 2    
     6    2    4 am   BACKBONE|DICT|INTERRES
     7    4    5 1    
     8    4   75 1    
     9    5    6 1    
    10    5   35 1    
    11    5   76 1    
    12    6    7 1    
    13    6   77 1    
    14    6   78 1    
    15    7    8 1    
    16    8    9 1    
    17    8   79 1    
    18    8   80 1    
    19    9   10 ar   
    20    9   14 ar   
    21   10   11 ar   
    22   10   81 1    
    23   11   12 ar   
    24   11   71 1    
    25   12   13 ar   
    26   12   82 1    
    27   13   14 ar   
    28   13   15 1    
    29   14   83 1    
    30   15   16 1    
    31   15   84 1    
    32   15   85 1    
    33   16   17 1    
    34   17   18 1    
    35   17   86 1    
    36   17   87 1    
    37   18   19 1    
    38   18   37 1    
    39   18   88 1    
    40   19   20 am   BACKBONE|DICT|INTERRES
    41   19   89 1    
    42   20   21 2    
    43   20   22 1    
    44   22   23 1    
    45   22   24 1    
    46   22   90 1    
    47   23   91 1    
    48   23   92 1    
    49   23   93 1    
    50   24   25 am   BACKBONE|DICT|INTERRES
    51   24   94 1    
    52   25   26 2    
    53   25   27 1    
    54   27   28 1    
    55   27   29 1    
    56   27   95 1    
    57   28   96 1    
    58   28   97 1    
    59   28   98 1    
    60   29   30 am   BACKBONE|DICT|INTERRES
    61   29   99 1    
    62   30   31 2    
    63   30   32 1    
    64   32   33 1    
    65   32   34 1    
    66   32  100 1    
    67   33  101 1    
    68   33  102 1    
    69   33  103 1    
    70   34   35 am   BACKBONE|DICT|INTERRES
    71   34  104 1    
    72   35   36 2    
    73   37   38 2    
    74   37   39 am   BACKBONE|DICT|INTERRES
    75   39   40 1    
    76   39  105 1    
    77   40   41 1    
    78   40   42 1    
    79   40  106 1    
    80   41  107 1    
    81   41  108 1    
    82   41  109 1    
    83   42   43 2    
    84   42   44 am   BACKBONE|DICT|INTERRES
    85   44   45 1    
    86   44  110 1    
    87   45   46 1    
    88   45   47 1    
    89   45  111 1    
    90   46  112 1    
    91   46  113 1    
    92   46  114 1    
    93   47   48 2    
    94   47   49 am   BACKBONE|DICT|INTERRES
    95   49   50 1    
    96   49  115 1    
    97   50   51 1    
    98   50   52 1    
    99   50  116 1    
   100   51  117 1    
   101   51  118 1    
   102   51  119 1    
   103   52   53 2    
   104   52   54 am   BACKBONE|DICT|INTERRES
   105   54   55 1    
   106   54  120 1    
   107   55   56 1    
   108   55   57 1    
   109   55  121 1    
   110   56  122 1    
   111   56  123 1    
   112   56  124 1    
   113   57   58 2    
   114   57   59 am   BACKBONE|DICT|INTERRES
   115   59   60 1    
   116   59  125 1    
   117   60   61 1    
   118   60   62 1    
   119   60  126 1    
   120   61  127 1    
   121   61  128 1    
   122   61  129 1    
   123   62   63 2    
   124   62   64 am   BACKBONE|DICT|INTERRES
   125   64   65 1    
   126   64  130 1    
   127   65   66 1    
   128   65   69 1    
   129   65  131 1    
   130   66   67 am   BACKBONE|DICT|INTERRES
   131   66   68 2    
   132   67  132 1    
   133   67  133 1    
   134   69   70 1    
   135   69  134 1    
   136   69  135 1    
   137   70   71 1    
   138   71  136 1    
   139   71  137 1    
@<TRIPOS>SUBSTRUCTURE
     1 UNK         1 GROUP             0       ****    0 ROOT    
