@<TRIPOS>MOLECULE
3R137
137   139    1
SMALL
USER_CHARGES


@<TRIPOS>ATOM
      1 CA         26.4770   -4.3638    3.6172 C.3       0 UNK        -0.2020 
      2 C          27.1412   -3.2588    2.8092 C.2       0 UNK         0.4855 
      3 O          27.2149   -2.1203    3.2736 O.2       0 UNK        -0.5197 
      4 N          27.6346   -3.5880    1.6097 N.am      1 UNK        -0.4892 
      5 CA         28.2348   -2.6470    0.6584 C.3       1 UNK         0.0835 
      6 C6         29.2101   -3.3539   -0.3184 C.3       12 UNK        -0.0855 
      7 S7         28.5515   -4.8531   -1.1303 S.3       12 UNK        -0.2931 
      8 C8         30.0218   -5.4158   -2.0507 C.3       12 UNK         0.0378 
      9 C9         30.2195   -4.6038   -3.3220 C.ar      12 UNK        -0.0802 
     10 C10        30.9713   -3.4252   -3.3020 C.ar      12 UNK        -0.0944 
     11 C11        31.0947   -2.6324   -4.4468 C.ar      12 UNK        -0.0787 
     12 C12        30.4719   -3.0529   -5.6288 C.ar      12 UNK        -0.0862 
     13 C13        29.7461   -4.2477   -5.6742 C.ar      12 UNK        -0.0733 
     14 C14        29.6268   -5.0207   -4.5162 C.ar      12 UNK        -0.0832 
     15 C15        29.0988   -4.6981   -6.9791 C.3       12 UNK         0.0240 
     16 S16        27.3169   -5.0699   -6.8346 S.3       12 UNK        -0.2522 
     17 C17        26.6227   -3.5561   -6.0893 C.3       12 UNK        -0.0967 
     18 CA         26.4047   -2.4124   -7.1170 C.3       5 UNK         0.0660 
     19 N          25.1483   -1.6956   -6.8841 N.am      5 UNK        -0.4015 
     20 C          24.6543   -0.7062   -7.6450 C.2       4 UNK         0.4946 
     21 O          25.1973   -0.2884   -8.6661 O.2       4 UNK        -0.5353 
     22 CA         23.3422   -0.0494   -7.1811 C.3       4 UNK         0.0277 
     23 CB         22.1479   -0.6345   -7.9513 C.3       4 UNK        -0.1981 
     24 N          23.1111   -0.1879   -5.7405 N.am      4 UNK        -0.4209 
     25 C          23.8583    0.3993   -4.7957 C.2       3 UNK         0.4942 
     26 O          24.7535    1.2100   -5.0492 O.2       3 UNK        -0.5208 
     27 CA         23.5484    0.0068   -3.3363 C.3       3 UNK         0.0250 
     28 CB         23.1267   -1.4733   -3.1802 C.3       3 UNK        -0.1990 
     29 N          24.6488    0.3131   -2.4158 N.am      3 UNK        -0.4232 
     30 C          25.9054   -0.1591   -2.4443 C.2       2 UNK         0.4993 
     31 O          26.3354   -0.9414   -3.2978 O.2       2 UNK        -0.5286 
     32 CA         26.8594    0.3624   -1.3460 C.3       2 UNK         0.0209 
     33 CB         26.1754    1.2382   -0.2687 C.3       2 UNK        -0.1931 
     34 N          27.6396   -0.6991   -0.6967 N.am      2 UNK        -0.4546 
     35 C          27.1709   -1.7878   -0.0650 C.2       1 UNK         0.5154 
     36 O          25.9768   -2.0987   -0.0127 O.2       1 UNK        -0.5181 
     37 C          27.6085   -1.4533   -7.1516 C.2       5 UNK         0.5014 
     38 O          28.3729   -1.4754   -8.1173 O.2       5 UNK        -0.5248 
     39 N          27.7293   -0.6010   -6.1215 N.am      6 UNK        -0.4434 
     40 CA         28.7912    0.4011   -6.0097 C.3       6 UNK         0.0363 
     41 CB         28.7208    1.0828   -4.6369 C.3       6 UNK        -0.1936 
     42 C          28.7746    1.4453   -7.1354 C.2       6 UNK         0.5081 
     43 O          29.8435    1.8691   -7.5757 O.2       6 UNK        -0.5248 
     44 N          27.5727    1.8191   -7.5946 N.am      7 UNK        -0.4718 
     45 CA         27.3696    2.7178   -8.7302 C.3       7 UNK         0.0273 
     46 CB         25.9186    3.2256   -8.7393 C.3       7 UNK        -0.1935 
     47 C          27.7322    2.0497  -10.0662 C.2       7 UNK         0.5018 
     48 O          28.4409    2.6582  -10.8674 O.2       7 UNK        -0.5186 
     49 N          27.2624    0.8103  -10.2721 N.am      8 UNK        -0.4240 
     50 CA         27.5076    0.0062  -11.4725 C.3       8 UNK         0.0235 
     51 CB         26.6312   -1.2565  -11.4375 C.3       8 UNK        -0.2000 
     52 C          28.9861   -0.3671  -11.6599 C.2       8 UNK         0.4941 
     53 O          29.4994   -0.2571  -12.7741 O.2       8 UNK        -0.5273 
     54 N          29.6471   -0.7844  -10.5716 N.am      9 UNK        -0.4262 
     55 CA         31.0757   -1.1113  -10.5526 C.3       9 UNK         0.0264 
     56 CB         31.3691   -1.9946   -9.3329 C.3       9 UNK        -0.1955 
     57 C          31.9865    0.1293  -10.5326 C.2       9 UNK         0.5031 
     58 O          33.1731   -0.0055  -10.8350 O.2       9 UNK        -0.5390 
     59 N          31.4276    1.2931  -10.1658 N.am      10 UNK        -0.4204 
     60 CA         32.0931    2.5836   -9.9644 C.3       10 UNK         0.0237 
     61 CB         32.6443    3.1400  -11.2949 C.3       10 UNK        -0.1985 
     62 C          33.1479    2.5093   -8.8447 C.2       10 UNK         0.4970 
     63 O          34.3146    2.8407   -9.0664 O.2       10 UNK        -0.4914 
     64 N          32.7105    2.0603   -7.6606 N.am      11 UNK        -0.4285 
     65 CA         33.5455    1.9374   -6.4530 C.3       11 UNK         0.1007 
     66 C          33.9995    3.2961   -5.8410 C.2       11 UNK         0.5703 
     67 N          33.3705    4.4192   -6.1689 N.am      11 UNK        -0.7361 
     68 O          34.9446    3.3296   -5.0564 O.2       11 UNK        -0.4986 
     69 C69        32.8726    1.0605   -5.3649 C.3       12 UNK        -0.0947 
     70 S70        32.5445   -0.6527   -5.8923 S.3       12 UNK        -0.2240 
     71 C71        31.8419   -1.3022   -4.3364 C.3       12 UNK         0.0194 
     72 H72        26.4980   -5.3202    3.0949 H         1 UNK         0.0906 
     73 H73        26.9858   -4.4884    4.5728 H         1 UNK         0.0906 
     74 H74        25.4362   -4.1090    3.8156 H         1 UNK         0.0906 
     75 H75        27.5191   -4.5280    1.2563 H         1 UNK         0.3140 
     76 H76        28.8323   -1.9422    1.2422 H         1 UNK         0.1085 
     77 H77        29.5532   -2.6569   -1.0828 H         1 UNK         0.0836 
     78 H78        30.1055   -3.6462    0.2327 H         1 UNK         0.0836 
     79 H79        30.9072   -5.3573   -1.4157 H         1 UNK         0.0731 
     80 H80        29.8978   -6.4708   -2.3001 H         1 UNK         0.0731 
     81 H81        31.4368   -3.1057   -2.3799 H         1 UNK         0.1312 
     82 H82        30.5365   -2.4456   -6.5176 H         1 UNK         0.1406 
     83 H83        29.0501   -5.9356   -4.5402 H         1 UNK         0.1631 
     84 H84        29.6117   -5.5947   -7.3289 H         1 UNK         0.0717 
     85 H85        29.2358   -3.9515   -7.7609 H         1 UNK         0.0717 
     86 H86        27.2200   -3.2445   -5.2292 H         1 UNK         0.0934 
     87 H87        25.6665   -3.8607   -5.6612 H         1 UNK         0.0934 
     88 H88        26.3123   -2.8469   -8.1148 H         1 UNK         0.0739 
     89 H89        24.6319   -1.9551   -6.0580 H         1 UNK         0.3093 
     90 H90        23.4111    1.0158   -7.4128 H         1 UNK         0.0818 
     91 H91        21.2194   -0.1257   -7.6913 H         1 UNK         0.0819 
     92 H92        22.2862   -0.5207   -9.0276 H         1 UNK         0.0819 
     93 H93        22.0171   -1.6987   -7.7511 H         1 UNK         0.0819 
     94 H94        22.3712   -0.8137   -5.4552 H         1 UNK         0.3041 
     95 H95        22.7095    0.6305   -3.0244 H         1 UNK         0.0784 
     96 H96        22.1808   -1.6815   -3.6809 H         1 UNK         0.0793 
     97 H97        23.8761   -2.1547   -3.5849 H         1 UNK         0.0793 
     98 H98        22.9863   -1.7307   -2.1300 H         1 UNK         0.0793 
     99 H99        24.4262    0.9790   -1.6899 H         1 UNK         0.3024 
    100 H100       27.5795    0.9972   -1.8635 H         1 UNK         0.1171 
    101 H101       26.9014    1.5936    0.4629 H         1 UNK         0.0786 
    102 H102       25.4057    0.6900    0.2766 H         1 UNK         0.0786 
    103 H103       25.7147    2.1257   -0.7048 H         1 UNK         0.0786 
    104 H104       28.6399   -0.5595   -0.7137 H         1 UNK         0.2977 
    105 H105       27.0703   -0.6548   -5.3513 H         1 UNK         0.3127 
    106 H106       29.7408   -0.1269   -6.0815 H         1 UNK         0.0770 
    107 H107       27.7612    1.5786   -4.4843 H         1 UNK         0.0814 
    108 H108       29.5009    1.8376   -4.5316 H         1 UNK         0.0814 
    109 H109       28.8596    0.3579   -3.8353 H         1 UNK         0.0814 
    110 H110       26.7494    1.4051   -7.1796 H         1 UNK         0.2983 
    111 H111       28.0281    3.5801   -8.6020 H         1 UNK         0.0947 
    112 H112       25.7579    3.9268   -9.5593 H         1 UNK         0.0806 
    113 H113       25.6761    3.7485   -7.8140 H         1 UNK         0.0806 
    114 H114       25.2019    2.4132   -8.8617 H         1 UNK         0.0806 
    115 H115       26.6490    0.3973   -9.5709 H         1 UNK         0.3000 
    116 H116       27.2073    0.6042  -12.3355 H         1 UNK         0.0850 
    117 H117       26.7901   -1.8693  -12.3258 H         1 UNK         0.0810 
    118 H118       25.5718   -1.0016  -11.4041 H         1 UNK         0.0810 
    119 H119       26.8516   -1.8760  -10.5671 H         1 UNK         0.0810 
    120 H120       29.1371   -0.9038   -9.6962 H         1 UNK         0.3040 
    121 H121       31.3148   -1.6821  -11.4525 H         1 UNK         0.0766 
    122 H122       32.4176   -2.2940   -9.3036 H         1 UNK         0.0812 
    123 H123       31.1569   -1.4577   -8.4096 H         1 UNK         0.0812 
    124 H124       30.7691   -2.9041   -9.3447 H         1 UNK         0.0812 
    125 H125       30.4480    1.2760   -9.9147 H         1 UNK         0.3205 
    126 H126       31.3214    3.2726   -9.6171 H         1 UNK         0.0754 
    127 H127       33.0461    4.1448  -11.1591 H         1 UNK         0.0769 
    128 H128       31.8606    3.2031  -12.0500 H         1 UNK         0.0769 
    129 H129       33.4474    2.5212  -11.6960 H         1 UNK         0.0769 
    130 H130       31.7220    1.8436   -7.5571 H         1 UNK         0.2981 
    131 H131       34.4631    1.4290   -6.7552 H         1 UNK         0.0541 
    132 H132       32.5901    4.4008   -6.8051 H         1 UNK         0.3459 
    133 H133       33.6773    5.2917   -5.7688 H         1 UNK         0.3459 
    134 H134       31.9305    1.5129   -5.0508 H         1 UNK         0.0612 
    135 H135       33.5017    1.0088   -4.4739 H         1 UNK         0.0612 
    136 H136       32.6567   -1.3954   -3.6167 H         1 UNK         0.0624 
    137 H137       31.1505   -0.5665   -3.9254 H         1 UNK         0.0624 
@<TRIPOS>BOND
     1    1    2 1    
     2    1   72 1    
     3    1   73 1    
     4    1   74 1    
     5    2    3 2    
     6    2    4 am   BACKBONE|DICT|INTERRES
     7    4    5 1    
     8    4   75 1    
     9    5    6 1    
    10    5   35 1    
    11    5   76 1    
    12    6    7 1    
    13    6   77 1    
    14    6   78 1    
    15    7    8 1    
    16    8    9 1    
    17    8   79 1    
    18    8   80 1    
    19    9   10 ar   
    20    9   14 ar   
    21   10   11 ar   
    22   10   81 1    
    23   11   12 ar   
    24   11   71 1    
    25   12   13 ar   
    26   12   82 1    
    27   13   14 ar   
    28   13   15 1    
    29   14   83 1    
    30   15   16 1    
    31   15   84 1    
    32   15   85 1    
    33   16   17 1    
    34   17   18 1    
    35   17   86 1    
    36   17   87 1    
    37   18   19 1    
    38   18   37 1    
    39   18   88 1    
    40   19   20 am   BACKBONE|DICT|INTERRES
    41   19   89 1    
    42   20   21 2    
    43   20   22 1    
    44   22   23 1    
    45   22   24 1    
    46   22   90 1    
    47   23   91 1    
    48   23   92 1    
    49   23   93 1    
    50   24   25 am   BACKBONE|DICT|INTERRES
    51   24   94 1    
    52   25   26 2    
    53   25   27 1    
    54   27   28 1    
    55   27   29 1    
    56   27   95 1    
    57   28   96 1    
    58   28   97 1    
    59   28   98 1    
    60   29   30 am   BACKBONE|DICT|INTERRES
    61   29   99 1    
    62   30   31 2    
    63   30   32 1    
    64   32   33 1    
    65   32   34 1    
    66   32  100 1    
    67   33  101 1    
    68   33  102 1    
    69   33  103 1    
    70   34   35 am   BACKBONE|DICT|INTERRES
    71   34  104 1    
    72   35   36 2    
    73   37   38 2    
    74   37   39 am   BACKBONE|DICT|INTERRES
    75   39   40 1    
    76   39  105 1    
    77   40   41 1    
    78   40   42 1    
    79   40  106 1    
    80   41  107 1    
    81   41  108 1    
    82   41  109 1    
    83   42   43 2    
    84   42   44 am   BACKBONE|DICT|INTERRES
    85   44   45 1    
    86   44  110 1    
    87   45   46 1    
    88   45   47 1    
    89   45  111 1    
    90   46  112 1    
    91   46  113 1    
    92   46  114 1    
    93   47   48 2    
    94   47   49 am   BACKBONE|DICT|INTERRES
    95   49   50 1    
    96   49  115 1    
    97   50   51 1    
    98   50   52 1    
    99   50  116 1    
   100   51  117 1    
   101   51  118 1    
   102   51  119 1    
   103   52   53 2    
   104   52   54 am   BACKBONE|DICT|INTERRES
   105   54   55 1    
   106   54  120 1    
   107   55   56 1    
   108   55   57 1    
   109   55  121 1    
   110   56  122 1    
   111   56  123 1    
   112   56  124 1    
   113   57   58 2    
   114   57   59 am   BACKBONE|DICT|INTERRES
   115   59   60 1    
   116   59  125 1    
   117   60   61 1    
   118   60   62 1    
   119   60  126 1    
   120   61  127 1    
   121   61  128 1    
   122   61  129 1    
   123   62   63 2    
   124   62   64 am   BACKBONE|DICT|INTERRES
   125   64   65 1    
   126   64  130 1    
   127   65   66 1    
   128   65   69 1    
   129   65  131 1    
   130   66   67 am   BACKBONE|DICT|INTERRES
   131   66   68 2    
   132   67  132 1    
   133   67  133 1    
   134   69   70 1    
   135   69  134 1    
   136   69  135 1    
   137   70   71 1    
   138   71  136 1    
   139   71  137 1    
@<TRIPOS>SUBSTRUCTURE
     1 UNK         1 GROUP             0       ****    0 ROOT    
