@<TRIPOS>MOLECULE
3R137
137   139    1
SMALL
USER_CHARGES


@<TRIPOS>ATOM
      1 CA         22.8717   -5.6570   -0.9717 C.3       0 UNK        -0.2020 
      2 C          24.1994   -4.9529   -0.7375 C.2       0 UNK         0.4855 
      3 O          24.3901   -4.3334    0.3098 O.2       0 UNK        -0.5197 
      4 N          25.1186   -5.0267   -1.7093 N.am      1 UNK        -0.4892 
      5 CA         26.4478   -4.4035   -1.6796 C.3       1 UNK         0.0835 
      6 C6         27.4285   -5.1756   -2.6014 C.3       12 UNK        -0.0855 
      7 S7         29.1837   -4.8444   -2.2159 S.3       12 UNK        -0.2931 
      8 C8         29.7866   -4.1714   -3.8021 C.3       12 UNK         0.0378 
      9 C9         30.7408   -2.9991   -3.6246 C.ar      12 UNK        -0.0802 
     10 C10        31.9507   -2.9571   -4.3244 C.ar      12 UNK        -0.0944 
     11 C11        32.7824   -1.8352   -4.2394 C.ar      12 UNK        -0.0787 
     12 C12        32.4060   -0.7599   -3.4267 C.ar      12 UNK        -0.0862 
     13 C13        31.1991   -0.7920   -2.7210 C.ar      12 UNK        -0.0733 
     14 C14        30.3761   -1.9157   -2.8220 C.ar      12 UNK        -0.0832 
     15 C15        30.7805    0.3854   -1.8529 C.3       12 UNK         0.0240 
     16 S16        29.9181    1.6738   -2.8109 S.3       12 UNK        -0.2522 
     17 C17        28.2951    0.9082   -3.1529 C.3       12 UNK        -0.0967 
     18 CA         27.9788    0.8473   -4.6692 C.3       5 UNK         0.0660 
     19 N          27.1353   -0.3076   -5.0200 N.am      5 UNK        -0.4015 
     20 C          26.7289   -0.6288   -6.2603 C.2       4 UNK         0.4946 
     21 O          27.0541   -0.0042   -7.2693 O.2       4 UNK        -0.5353 
     22 CA         25.7695   -1.8174   -6.4071 C.3       4 UNK         0.0277 
     23 CB         26.5357   -3.1471   -6.4536 C.3       4 UNK        -0.1981 
     24 N          24.7873   -1.8386   -5.3239 N.am      4 UNK        -0.4209 
     25 C          23.6695   -1.0973   -5.3145 C.2       3 UNK         0.4942 
     26 O          23.2926   -0.4131   -6.2657 O.2       3 UNK        -0.5208 
     27 CA         22.8418   -1.0945   -4.0163 C.3       3 UNK         0.0250 
     28 CB         21.7975   -2.2224   -4.0396 C.3       3 UNK        -0.1990 
     29 N          23.6583   -1.2159   -2.8059 N.am      3 UNK        -0.4232 
     30 C          24.5786   -0.3267   -2.4054 C.2       2 UNK         0.4993 
     31 O          24.8178    0.7276   -2.9944 O.2       2 UNK        -0.5286 
     32 CA         25.4153   -0.7115   -1.1732 C.3       2 UNK         0.0209 
     33 CB         24.7239   -0.2377    0.1144 C.3       2 UNK        -0.1931 
     34 N          25.6947   -2.1493   -1.0762 N.am      2 UNK        -0.4546 
     35 C          26.3369   -2.8917   -1.9897 C.2       1 UNK         0.5154 
     36 O          26.7577   -2.4308   -3.0539 O.2       1 UNK        -0.5181 
     37 C          27.3910    2.1884   -5.1612 C.2       5 UNK         0.5014 
     38 O          28.1391    3.0436   -5.6352 O.2       5 UNK        -0.5248 
     39 N          26.0572    2.3212   -5.1121 N.am      6 UNK        -0.4434 
     40 CA         25.2905    3.4354   -5.6811 C.3       6 UNK         0.0363 
     41 CB         23.8050    3.2420   -5.3380 C.3       6 UNK        -0.1936 
     42 C          25.4695    3.6283   -7.2034 C.2       6 UNK         0.5081 
     43 O          25.2602    4.7386   -7.6921 O.2       6 UNK        -0.5248 
     44 N          25.8696    2.5681   -7.9184 N.am      7 UNK        -0.4718 
     45 CA         26.2212    2.5716   -9.3406 C.3       7 UNK         0.0273 
     46 CB         25.4393    1.4432  -10.0378 C.3       7 UNK        -0.1935 
     47 C          27.7427    2.4153   -9.5497 C.2       7 UNK         0.5018 
     48 O          28.1666    2.0872  -10.6585 O.2       7 UNK        -0.5186 
     49 N          28.5353    2.6290   -8.4866 N.am      8 UNK        -0.4240 
     50 CA         29.9976    2.5182   -8.3956 C.3       8 UNK         0.0235 
     51 CB         30.6961    3.4877   -9.3731 C.3       8 UNK        -0.2000 
     52 C          30.5511    1.0836   -8.5052 C.2       8 UNK         0.4941 
     53 O          31.7693    0.9357   -8.6125 O.2       8 UNK        -0.5273 
     54 N          29.6735    0.0654   -8.4819 N.am      9 UNK        -0.4262 
     55 CA         29.9223   -1.3866   -8.4306 C.3       9 UNK         0.0264 
     56 CB         30.2318   -1.7963   -6.9790 C.3       9 UNK        -0.1955 
     57 C          30.9679   -1.9569   -9.4165 C.2       9 UNK         0.5031 
     58 O          31.5033   -3.0388   -9.1687 O.2       9 UNK        -0.5390 
     59 N          31.2567   -1.2218  -10.5001 N.am      10 UNK        -0.4204 
     60 CA         32.3535   -1.4333  -11.4546 C.3       10 UNK         0.0237 
     61 CB         32.1466   -2.7332  -12.2623 C.3       10 UNK        -0.1985 
     62 C          33.7660   -1.3382  -10.8278 C.2       10 UNK         0.4970 
     63 O          34.7220   -1.8218  -11.4373 O.2       10 UNK        -0.4914 
     64 N          33.8848   -0.7019   -9.6544 N.am      11 UNK        -0.4285 
     65 CA         35.1474   -0.4107   -8.9558 C.3       11 UNK         0.1007 
     66 C          35.4533    1.1113   -8.8745 C.2       11 UNK         0.5703 
     67 N          34.4695    1.9951   -9.0031 N.am      11 UNK        -0.7361 
     68 O          36.6098    1.4965   -8.7175 O.2       11 UNK        -0.4986 
     69 C69        35.2167   -1.0944   -7.5613 C.3       12 UNK        -0.0947 
     70 S70        33.8895   -0.5754   -6.4216 S.3       12 UNK        -0.2240 
     71 C71        34.0636   -1.7679   -5.0596 C.3       12 UNK         0.0194 
     72 H72        22.8395   -6.1583   -1.9389 H         1 UNK         0.0906 
     73 H73        22.7029   -6.4045   -0.1970 H         1 UNK         0.0906 
     74 H74        22.0539   -4.9379   -0.9350 H         1 UNK         0.0906 
     75 H75        24.8966   -5.5342   -2.5547 H         1 UNK         0.3140 
     76 H76        26.8310   -4.4867   -0.6594 H         1 UNK         0.1085 
     77 H77        27.2071   -4.9944   -3.6540 H         1 UNK         0.0836 
     78 H78        27.2885   -6.2488   -2.4611 H         1 UNK         0.0836 
     79 H79        28.9545   -3.8138   -4.4052 H         1 UNK         0.0731 
     80 H80        30.2549   -4.9775   -4.3688 H         1 UNK         0.0731 
     81 H81        32.2276   -3.7810   -4.9680 H         1 UNK         0.1312 
     82 H82        33.0409    0.1136   -3.3667 H         1 UNK         0.1406 
     83 H83        29.4385   -1.9502   -2.2856 H         1 UNK         0.1631 
     84 H84        31.6638    0.8278   -1.3900 H         1 UNK         0.0717 
     85 H85        30.1444    0.0525   -1.0311 H         1 UNK         0.0717 
     86 H86        28.2854   -0.0930   -2.7281 H         1 UNK         0.0934 
     87 H87        27.5272    1.4570   -2.6039 H         1 UNK         0.0934 
     88 H88        28.9149    0.6935   -5.2108 H         1 UNK         0.0739 
     89 H89        26.8711   -0.9248   -4.2579 H         1 UNK         0.3093 
     90 H90        25.2477   -1.7028   -7.3602 H         1 UNK         0.0818 
     91 H91        27.0565   -3.3450   -5.5197 H         1 UNK         0.0819 
     92 H92        25.8632   -3.9835   -6.6441 H         1 UNK         0.0819 
     93 H93        27.2808   -3.1424   -7.2500 H         1 UNK         0.0819 
     94 H94        25.0487   -2.3395   -4.4852 H         1 UNK         0.3041 
     95 H95        22.3159   -0.1385   -3.9662 H         1 UNK         0.0784 
     96 H96        21.1598   -2.1444   -4.9214 H         1 UNK         0.0793 
     97 H97        22.2648   -3.2078   -4.0615 H         1 UNK         0.0793 
     98 H98        21.1456   -2.1784   -3.1668 H         1 UNK         0.0793 
     99 H99        23.5323   -2.0493   -2.2506 H         1 UNK         0.3024 
    100 H100       26.3724   -0.1954   -1.2515 H         1 UNK         0.1171 
    101 H101       24.5179    0.8331    0.0762 H         1 UNK         0.0786 
    102 H102       25.3509   -0.4138    0.9888 H         1 UNK         0.0786 
    103 H103       23.7734   -0.7481    0.2752 H         1 UNK         0.0786 
    104 H104       25.3145   -2.6397   -0.2718 H         1 UNK         0.2977 
    105 H105       25.5255    1.6074   -4.6204 H         1 UNK         0.3127 
    106 H106       25.6388    4.3499   -5.1969 H         1 UNK         0.0770 
    107 H107       23.4055    2.3307   -5.7848 H         1 UNK         0.0814 
    108 H108       23.2061    4.0762   -5.7061 H         1 UNK         0.0814 
    109 H109       23.6500    3.1821   -4.2604 H         1 UNK         0.0814 
    110 H110       26.0541    1.6926   -7.4367 H         1 UNK         0.2983 
    111 H111       25.9356    3.5198   -9.8006 H         1 UNK         0.0947 
    112 H112       25.6164    1.4468  -11.1141 H         1 UNK         0.0806 
    113 H113       24.3654    1.5551   -9.8883 H         1 UNK         0.0806 
    114 H114       25.7288    0.4612   -9.6617 H         1 UNK         0.0806 
    115 H115       28.0868    2.8690   -7.6070 H         1 UNK         0.3000 
    116 H116       30.2494    2.8440   -7.3854 H         1 UNK         0.0850 
    117 H117       31.7670    3.5407   -9.1740 H         1 UNK         0.0810 
    118 H118       30.3026    4.4995   -9.2777 H         1 UNK         0.0810 
    119 H119       30.5766    3.1760  -10.4109 H         1 UNK         0.0810 
    120 H120       28.6952    0.3127   -8.3617 H         1 UNK         0.3040 
    121 H121       28.9777   -1.8559   -8.7079 H         1 UNK         0.0766 
    122 H122       29.4473   -1.4897   -6.2917 H         1 UNK         0.0812 
    123 H123       31.1591   -1.3441   -6.6342 H         1 UNK         0.0812 
    124 H124       30.3342   -2.8771   -6.8781 H         1 UNK         0.0812 
    125 H125       30.7657   -0.3426  -10.5915 H         1 UNK         0.3205 
    126 H126       32.2928   -0.6021  -12.1584 H         1 UNK         0.0754 
    127 H127       32.8613   -2.8029  -13.0832 H         1 UNK         0.0769 
    128 H128       31.1493   -2.7738  -12.7004 H         1 UNK         0.0769 
    129 H129       32.2781   -3.6211  -11.6434 H         1 UNK         0.0769 
    130 H130       33.0555   -0.2987   -9.2254 H         1 UNK         0.2981 
    131 H131       35.9718   -0.8258   -9.5378 H         1 UNK         0.0541 
    132 H132       34.6826    2.9782   -8.9597 H         1 UNK         0.3459 
    133 H133       33.5041    1.6835   -9.0256 H         1 UNK         0.3459 
    134 H134       35.1538   -2.1759   -7.6905 H         1 UNK         0.0612 
    135 H135       36.1804   -0.9036   -7.0858 H         1 UNK         0.0612 
    136 H136       34.3078   -2.7509   -5.4649 H         1 UNK         0.0624 
    137 H137       34.8996   -1.4735   -4.4238 H         1 UNK         0.0624 
@<TRIPOS>BOND
     1    1    2 1    
     2    1   72 1    
     3    1   73 1    
     4    1   74 1    
     5    2    3 2    
     6    2    4 am   BACKBONE|DICT|INTERRES
     7    4    5 1    
     8    4   75 1    
     9    5    6 1    
    10    5   35 1    
    11    5   76 1    
    12    6    7 1    
    13    6   77 1    
    14    6   78 1    
    15    7    8 1    
    16    8    9 1    
    17    8   79 1    
    18    8   80 1    
    19    9   10 ar   
    20    9   14 ar   
    21   10   11 ar   
    22   10   81 1    
    23   11   12 ar   
    24   11   71 1    
    25   12   13 ar   
    26   12   82 1    
    27   13   14 ar   
    28   13   15 1    
    29   14   83 1    
    30   15   16 1    
    31   15   84 1    
    32   15   85 1    
    33   16   17 1    
    34   17   18 1    
    35   17   86 1    
    36   17   87 1    
    37   18   19 1    
    38   18   37 1    
    39   18   88 1    
    40   19   20 am   BACKBONE|DICT|INTERRES
    41   19   89 1    
    42   20   21 2    
    43   20   22 1    
    44   22   23 1    
    45   22   24 1    
    46   22   90 1    
    47   23   91 1    
    48   23   92 1    
    49   23   93 1    
    50   24   25 am   BACKBONE|DICT|INTERRES
    51   24   94 1    
    52   25   26 2    
    53   25   27 1    
    54   27   28 1    
    55   27   29 1    
    56   27   95 1    
    57   28   96 1    
    58   28   97 1    
    59   28   98 1    
    60   29   30 am   BACKBONE|DICT|INTERRES
    61   29   99 1    
    62   30   31 2    
    63   30   32 1    
    64   32   33 1    
    65   32   34 1    
    66   32  100 1    
    67   33  101 1    
    68   33  102 1    
    69   33  103 1    
    70   34   35 am   BACKBONE|DICT|INTERRES
    71   34  104 1    
    72   35   36 2    
    73   37   38 2    
    74   37   39 am   BACKBONE|DICT|INTERRES
    75   39   40 1    
    76   39  105 1    
    77   40   41 1    
    78   40   42 1    
    79   40  106 1    
    80   41  107 1    
    81   41  108 1    
    82   41  109 1    
    83   42   43 2    
    84   42   44 am   BACKBONE|DICT|INTERRES
    85   44   45 1    
    86   44  110 1    
    87   45   46 1    
    88   45   47 1    
    89   45  111 1    
    90   46  112 1    
    91   46  113 1    
    92   46  114 1    
    93   47   48 2    
    94   47   49 am   BACKBONE|DICT|INTERRES
    95   49   50 1    
    96   49  115 1    
    97   50   51 1    
    98   50   52 1    
    99   50  116 1    
   100   51  117 1    
   101   51  118 1    
   102   51  119 1    
   103   52   53 2    
   104   52   54 am   BACKBONE|DICT|INTERRES
   105   54   55 1    
   106   54  120 1    
   107   55   56 1    
   108   55   57 1    
   109   55  121 1    
   110   56  122 1    
   111   56  123 1    
   112   56  124 1    
   113   57   58 2    
   114   57   59 am   BACKBONE|DICT|INTERRES
   115   59   60 1    
   116   59  125 1    
   117   60   61 1    
   118   60   62 1    
   119   60  126 1    
   120   61  127 1    
   121   61  128 1    
   122   61  129 1    
   123   62   63 2    
   124   62   64 am   BACKBONE|DICT|INTERRES
   125   64   65 1    
   126   64  130 1    
   127   65   66 1    
   128   65   69 1    
   129   65  131 1    
   130   66   67 am   BACKBONE|DICT|INTERRES
   131   66   68 2    
   132   67  132 1    
   133   67  133 1    
   134   69   70 1    
   135   69  134 1    
   136   69  135 1    
   137   70   71 1    
   138   71  136 1    
   139   71  137 1    
@<TRIPOS>SUBSTRUCTURE
     1 UNK         1 GROUP             0       ****    0 ROOT    
