@<TRIPOS>MOLECULE
3R137
137   139    1
SMALL
USER_CHARGES


@<TRIPOS>ATOM
      1 CA         24.0127   -6.1969   -0.3250 C.3       0 UNK        -0.2020 
      2 C          25.1951   -5.2415   -0.3737 C.2       0 UNK         0.4855 
      3 O          25.3788   -4.4441    0.5469 O.2       0 UNK        -0.5197 
      4 N          25.9956   -5.3020   -1.4455 N.am      1 UNK        -0.4892 
      5 CA         27.1874   -4.4752   -1.6759 C.3       1 UNK         0.0835 
      6 C6         28.1736   -5.1638   -2.6639 C.3       12 UNK        -0.0855 
      7 S7         29.2910   -6.3523   -1.8415 S.3       12 UNK        -0.2931 
      8 C8         30.4596   -5.2834   -0.9176 C.3       12 UNK         0.0378 
      9 C9         30.8821   -4.0379   -1.6889 C.ar      12 UNK        -0.0802 
     10 C10        31.8404   -4.1193   -2.7039 C.ar      12 UNK        -0.0944 
     11 C11        32.1841   -2.9846   -3.4466 C.ar      12 UNK        -0.0787 
     12 C12        31.5494   -1.7703   -3.1705 C.ar      12 UNK        -0.0862 
     13 C13        30.5841   -1.6697   -2.1617 C.ar      12 UNK        -0.0733 
     14 C14        30.2800   -2.8065   -1.4090 C.ar      12 UNK        -0.0832 
     15 C15        29.7974   -0.3837   -1.8975 C.3       12 UNK         0.0240 
     16 S16        30.5259    1.1340   -2.6050 S.3       12 UNK        -0.2522 
     17 C17        29.0489    2.0474   -3.1577 C.3       12 UNK        -0.0967 
     18 CA         28.7914    1.8666   -4.6755 C.3       5 UNK         0.0660 
     19 N          28.3155    0.5232   -5.0185 N.am      5 UNK        -0.4015 
     20 C          28.2855    0.0243   -6.2626 C.2       4 UNK         0.4946 
     21 O          28.7159    0.6123   -7.2532 O.2       4 UNK        -0.5353 
     22 CA         27.6142   -1.3424   -6.4450 C.3       4 UNK         0.0277 
     23 CB         28.6043   -2.4775   -6.1375 C.3       4 UNK        -0.1981 
     24 N          26.4078   -1.4767   -5.6252 N.am      4 UNK        -0.4209 
     25 C          25.2733   -0.7919   -5.8411 C.2       3 UNK         0.4942 
     26 O          25.1281    0.0089   -6.7637 O.2       3 UNK        -0.5208 
     27 CA         24.1118   -0.9967   -4.8507 C.3       3 UNK         0.0250 
     28 CB         23.2199   -2.1618   -5.3072 C.3       3 UNK        -0.1990 
     29 N          24.5382   -1.2250   -3.4691 N.am      3 UNK        -0.4232 
     30 C          25.2877   -0.3862   -2.7408 C.2       2 UNK         0.4993 
     31 O          25.6804    0.7110   -3.1410 O.2       2 UNK        -0.5286 
     32 CA         25.7339   -0.8872   -1.3557 C.3       2 UNK         0.0209 
     33 CB         24.6771   -0.5358   -0.2971 C.3       2 UNK        -0.1931 
     34 N          26.0504   -2.3229   -1.2676 N.am      2 UNK        -0.4546 
     35 C          26.8250   -3.0324   -2.1024 C.2       1 UNK         0.5154 
     36 O          27.2548   -2.5796   -3.1626 O.2       1 UNK        -0.5181 
     37 C          27.8267    2.9467   -5.1995 C.2       5 UNK         0.5014 
     38 O          28.2908    3.9421   -5.7563 O.2       5 UNK        -0.5248 
     39 N          26.5132    2.7328   -5.0262 N.am      6 UNK        -0.4434 
     40 CA         25.4577    3.6495   -5.4656 C.3       6 UNK         0.0363 
     41 CB         24.0995    3.1727   -4.9277 C.3       6 UNK        -0.1936 
     42 C          25.4044    3.8318   -6.9923 C.2       6 UNK         0.5081 
     43 O          25.3033    4.9661   -7.4609 O.2       6 UNK        -0.5248 
     44 N          25.4808    2.7225   -7.7399 N.am      7 UNK        -0.4718 
     45 CA         25.4704    2.7225   -9.2058 C.3       7 UNK         0.0273 
     46 CB         24.9640    1.3571   -9.7001 C.3       7 UNK        -0.1935 
     47 C          26.8428    3.0282   -9.8308 C.2       7 UNK         0.5018 
     48 O          26.8909    3.3439  -11.0203 O.2       7 UNK        -0.5186 
     49 N          27.9226    2.8842   -9.0453 N.am      8 UNK        -0.4240 
     50 CA         29.3324    2.8684   -9.4639 C.3       8 UNK         0.0235 
     51 CB         29.7780    4.2454   -9.9995 C.3       8 UNK        -0.2000 
     52 C          29.6250    1.7089  -10.4401 C.2       8 UNK         0.4941 
     53 O          30.3862    1.8725  -11.3958 O.2       8 UNK        -0.5273 
     54 N          28.9932    0.5555  -10.1873 N.am      9 UNK        -0.4262 
     55 CA         29.0666   -0.6458  -11.0128 C.3       9 UNK         0.0264 
     56 CB         27.7798   -1.4685  -10.8264 C.3       9 UNK        -0.1955 
     57 C          30.3151   -1.4430  -10.6241 C.2       9 UNK         0.5031 
     58 O          30.3018   -2.1237   -9.5967 O.2       9 UNK        -0.5390 
     59 N          31.3861   -1.2903  -11.4160 N.am      10 UNK        -0.4204 
     60 CA         32.7374   -1.8562  -11.2618 C.3       10 UNK         0.0237 
     61 CB         32.7165   -3.3978  -11.2525 C.3       10 UNK        -0.1985 
     62 C          33.5195   -1.3024  -10.0559 C.2       10 UNK         0.4970 
     63 O          34.6946   -0.9667  -10.2054 O.2       10 UNK        -0.4914 
     64 N          32.8563   -1.1924   -8.9015 N.am      11 UNK        -0.4285 
     65 CA         33.3715   -0.5957   -7.6627 C.3       11 UNK         0.1007 
     66 C          33.5004    0.9571   -7.6990 C.2       11 UNK         0.5703 
     67 N          32.9979    1.6522   -8.7136 N.am      11 UNK        -0.7361 
     68 O          34.0820    1.5432   -6.7893 O.2       11 UNK        -0.4986 
     69 C69        32.5467   -1.0527   -6.4320 C.3       12 UNK        -0.0947 
     70 S70        32.5322   -2.8682   -6.2110 S.3       12 UNK        -0.2240 
     71 C71        33.2412   -3.0686   -4.5427 C.3       12 UNK         0.0194 
     72 H72        23.0798   -5.6366   -0.2699 H         1 UNK         0.0906 
     73 H73        23.9709   -6.8406   -1.2034 H         1 UNK         0.0906 
     74 H74        24.0811   -6.8323    0.5576 H         1 UNK         0.0906 
     75 H75        25.7846   -5.9675   -2.1760 H         1 UNK         0.3140 
     76 H76        27.6982   -4.3609   -0.7182 H         1 UNK         0.1085 
     77 H77        28.8023   -4.4570   -3.2065 H         1 UNK         0.0836 
     78 H78        27.6239   -5.6879   -3.4472 H         1 UNK         0.0836 
     79 H79        31.3433   -5.8695   -0.6608 H         1 UNK         0.0731 
     80 H80        30.0033   -5.0024    0.0327 H         1 UNK         0.0731 
     81 H81        32.3067   -5.0705   -2.9223 H         1 UNK         0.1312 
     82 H82        31.7980   -0.9051   -3.7610 H         1 UNK         0.1406 
     83 H83        29.5369   -2.7393   -0.6268 H         1 UNK         0.1631 
     84 H84        29.6762   -0.2360   -0.8233 H         1 UNK         0.0717 
     85 H85        28.7979   -0.5251   -2.3064 H         1 UNK         0.0717 
     86 H86        28.1768    1.7623   -2.5663 H         1 UNK         0.0934 
     87 H87        29.2327    3.0987   -2.9254 H         1 UNK         0.0934 
     88 H88        29.7395    2.0186   -5.1973 H         1 UNK         0.0739 
     89 H89        27.9065   -0.0222   -4.2740 H         1 UNK         0.3093 
     90 H90        27.3144   -1.4296   -7.4905 H         1 UNK         0.0818 
     91 H91        28.1357   -3.4559   -6.2402 H         1 UNK         0.0819 
     92 H92        29.4476   -2.4484   -6.8292 H         1 UNK         0.0819 
     93 H93        29.0135   -2.4050   -5.1288 H         1 UNK         0.0819 
     94 H94        26.4925   -2.0514   -4.7897 H         1 UNK         0.3041 
     95 H95        23.5101   -0.0865   -4.8581 H         1 UNK         0.0784 
     96 H96        22.8681   -2.0061   -6.3282 H         1 UNK         0.0793 
     97 H97        23.7551   -3.1122   -5.2881 H         1 UNK         0.0793 
     98 H98        22.3375   -2.2589   -4.6744 H         1 UNK         0.0793 
     99 H99        24.2881   -2.1113   -3.0557 H         1 UNK         0.3024 
    100 H100       26.6485   -0.3456   -1.1082 H         1 UNK         0.1171 
    101 H101       25.0334   -0.7591    0.7088 H         1 UNK         0.0786 
    102 H102       24.4335    0.5275   -0.3236 H         1 UNK         0.0786 
    103 H103       23.7497   -1.0880   -0.4541 H         1 UNK         0.0786 
    104 H104       25.7191   -2.8123   -0.4399 H         1 UNK         0.2977 
    105 H105       26.2148    1.9140   -4.4997 H         1 UNK         0.3127 
    106 H106       25.6702    4.6257   -5.0246 H         1 UNK         0.0770 
    107 H107       23.8208    2.2042   -5.3420 H         1 UNK         0.0814 
    108 H108       23.3087    3.8775   -5.1880 H         1 UNK         0.0814 
    109 H109       24.1102    3.0826   -3.8412 H         1 UNK         0.0814 
    110 H110       25.5041    1.8125   -7.2838 H         1 UNK         0.2983 
    111 H111       24.7745    3.4887   -9.5554 H         1 UNK         0.0947 
    112 H112       25.6310    0.5483   -9.3991 H         1 UNK         0.0806 
    113 H113       24.8943    1.3343  -10.7885 H         1 UNK         0.0806 
    114 H114       23.9719    1.1352   -9.3066 H         1 UNK         0.0806 
    115 H115       27.7618    2.6014   -8.0870 H         1 UNK         0.3000 
    116 H116       29.9155    2.6630   -8.5648 H         1 UNK         0.0850 
    117 H117       29.5556    5.0381   -9.2852 H         1 UNK         0.0810 
    118 H118       29.2895    4.4940  -10.9419 H         1 UNK         0.0810 
    119 H119       30.8536    4.2627  -10.1788 H         1 UNK         0.0810 
    120 H120       28.5179    0.4731   -9.2945 H         1 UNK         0.3040 
    121 H121       29.1319   -0.3610  -12.0654 H         1 UNK         0.0766 
    122 H122       27.8085   -2.3752  -11.4319 H         1 UNK         0.0812 
    123 H123       26.9003   -0.9021  -11.1325 H         1 UNK         0.0812 
    124 H124       27.6371   -1.7755   -9.7905 H         1 UNK         0.0812 
    125 H125       31.2889   -0.6439  -12.1886 H         1 UNK         0.3205 
    126 H126       33.2850   -1.5461  -12.1534 H         1 UNK         0.0754 
    127 H127       33.7309   -3.7989  -11.2497 H         1 UNK         0.0769 
    128 H128       32.2142   -3.7927  -12.1356 H         1 UNK         0.0769 
    129 H129       32.2108   -3.7965  -10.3725 H         1 UNK         0.0769 
    130 H130       31.8943   -1.5236   -8.8811 H         1 UNK         0.2981 
    131 H131       34.3884   -0.9689   -7.5280 H         1 UNK         0.0541 
    132 H132       33.1076    2.6535   -8.7218 H         1 UNK         0.3459 
    133 H133       32.5423    1.1854   -9.4800 H         1 UNK         0.3459 
    134 H134       32.9594   -0.5886   -5.5368 H         1 UNK         0.0612 
    135 H135       31.5138   -0.7078   -6.5110 H         1 UNK         0.0612 
    136 H136       33.7433   -4.0364   -4.5047 H         1 UNK         0.0624 
    137 H137       34.0174   -2.3219   -4.3702 H         1 UNK         0.0624 
@<TRIPOS>BOND
     1    1    2 1    
     2    1   72 1    
     3    1   73 1    
     4    1   74 1    
     5    2    3 2    
     6    2    4 am   BACKBONE|DICT|INTERRES
     7    4    5 1    
     8    4   75 1    
     9    5    6 1    
    10    5   35 1    
    11    5   76 1    
    12    6    7 1    
    13    6   77 1    
    14    6   78 1    
    15    7    8 1    
    16    8    9 1    
    17    8   79 1    
    18    8   80 1    
    19    9   10 ar   
    20    9   14 ar   
    21   10   11 ar   
    22   10   81 1    
    23   11   12 ar   
    24   11   71 1    
    25   12   13 ar   
    26   12   82 1    
    27   13   14 ar   
    28   13   15 1    
    29   14   83 1    
    30   15   16 1    
    31   15   84 1    
    32   15   85 1    
    33   16   17 1    
    34   17   18 1    
    35   17   86 1    
    36   17   87 1    
    37   18   19 1    
    38   18   37 1    
    39   18   88 1    
    40   19   20 am   BACKBONE|DICT|INTERRES
    41   19   89 1    
    42   20   21 2    
    43   20   22 1    
    44   22   23 1    
    45   22   24 1    
    46   22   90 1    
    47   23   91 1    
    48   23   92 1    
    49   23   93 1    
    50   24   25 am   BACKBONE|DICT|INTERRES
    51   24   94 1    
    52   25   26 2    
    53   25   27 1    
    54   27   28 1    
    55   27   29 1    
    56   27   95 1    
    57   28   96 1    
    58   28   97 1    
    59   28   98 1    
    60   29   30 am   BACKBONE|DICT|INTERRES
    61   29   99 1    
    62   30   31 2    
    63   30   32 1    
    64   32   33 1    
    65   32   34 1    
    66   32  100 1    
    67   33  101 1    
    68   33  102 1    
    69   33  103 1    
    70   34   35 am   BACKBONE|DICT|INTERRES
    71   34  104 1    
    72   35   36 2    
    73   37   38 2    
    74   37   39 am   BACKBONE|DICT|INTERRES
    75   39   40 1    
    76   39  105 1    
    77   40   41 1    
    78   40   42 1    
    79   40  106 1    
    80   41  107 1    
    81   41  108 1    
    82   41  109 1    
    83   42   43 2    
    84   42   44 am   BACKBONE|DICT|INTERRES
    85   44   45 1    
    86   44  110 1    
    87   45   46 1    
    88   45   47 1    
    89   45  111 1    
    90   46  112 1    
    91   46  113 1    
    92   46  114 1    
    93   47   48 2    
    94   47   49 am   BACKBONE|DICT|INTERRES
    95   49   50 1    
    96   49  115 1    
    97   50   51 1    
    98   50   52 1    
    99   50  116 1    
   100   51  117 1    
   101   51  118 1    
   102   51  119 1    
   103   52   53 2    
   104   52   54 am   BACKBONE|DICT|INTERRES
   105   54   55 1    
   106   54  120 1    
   107   55   56 1    
   108   55   57 1    
   109   55  121 1    
   110   56  122 1    
   111   56  123 1    
   112   56  124 1    
   113   57   58 2    
   114   57   59 am   BACKBONE|DICT|INTERRES
   115   59   60 1    
   116   59  125 1    
   117   60   61 1    
   118   60   62 1    
   119   60  126 1    
   120   61  127 1    
   121   61  128 1    
   122   61  129 1    
   123   62   63 2    
   124   62   64 am   BACKBONE|DICT|INTERRES
   125   64   65 1    
   126   64  130 1    
   127   65   66 1    
   128   65   69 1    
   129   65  131 1    
   130   66   67 am   BACKBONE|DICT|INTERRES
   131   66   68 2    
   132   67  132 1    
   133   67  133 1    
   134   69   70 1    
   135   69  134 1    
   136   69  135 1    
   137   70   71 1    
   138   71  136 1    
   139   71  137 1    
@<TRIPOS>SUBSTRUCTURE
     1 UNK         1 GROUP             0       ****    0 ROOT    
