@<TRIPOS>MOLECULE
3R137
137   139    1
SMALL
USER_CHARGES


@<TRIPOS>ATOM
      1 CA         29.4379   -5.7844   -4.7239 C.3       0 UNK        -0.2020 
      2 C          28.2510   -5.4653   -3.8278 C.2       0 UNK         0.4855 
      3 O          27.1213   -5.8392   -4.1449 O.2       0 UNK        -0.5197 
      4 N          28.5033   -4.7884   -2.7025 N.am      1 UNK        -0.4892 
      5 CA         27.4986   -4.4296   -1.6957 C.3       1 UNK         0.0835 
      6 C6         28.1160   -4.1575   -0.2899 C.3       12 UNK        -0.0855 
      7 S7         29.5961   -5.1664    0.1097 S.3       12 UNK        -0.2931 
      8 C8         30.9288   -3.9223    0.2686 C.3       12 UNK         0.0378 
      9 C9         31.0025   -2.9719   -0.9211 C.ar      12 UNK        -0.0802 
     10 C10        31.6094   -3.3629   -2.1188 C.ar      12 UNK        -0.0944 
     11 C11        31.6237   -2.5006   -3.2225 C.ar      12 UNK        -0.0787 
     12 C12        31.0042   -1.2489   -3.1243 C.ar      12 UNK        -0.0862 
     13 C13        30.4204   -0.8375   -1.9229 C.ar      12 UNK        -0.0733 
     14 C14        30.4481   -1.6936   -0.8206 C.ar      12 UNK        -0.0832 
     15 C15        29.7380    0.5181   -1.8097 C.3       12 UNK         0.0240 
     16 S16        27.9597    0.3050   -1.4747 S.3       12 UNK        -0.2522 
     17 C17        27.1446    1.5540   -2.5210 C.3       12 UNK        -0.0967 
     18 CA         27.4473    1.4719   -4.0412 C.3       5 UNK         0.0660 
     19 N          27.4216    0.1106   -4.5934 N.am      5 UNK        -0.4015 
     20 C          27.8321   -0.1963   -5.8340 C.2       4 UNK         0.4946 
     21 O          28.3604    0.6098   -6.5963 O.2       4 UNK        -0.5353 
     22 CA         27.5738   -1.6164   -6.3485 C.3       4 UNK         0.0277 
     23 CB         28.7627   -2.5355   -6.0453 C.3       4 UNK        -0.1981 
     24 N          26.3316   -2.1756   -5.8203 N.am      4 UNK        -0.4209 
     25 C          25.1158   -1.8106   -6.2533 C.2       3 UNK         0.4942 
     26 O          24.9314   -1.0083   -7.1693 O.2       3 UNK        -0.5208 
     27 CA         23.9014   -2.4051   -5.5196 C.3       3 UNK         0.0250 
     28 CB         23.5357   -3.7777   -6.1058 C.3       3 UNK        -0.1990 
     29 N          24.1092   -2.5286   -4.0751 N.am      3 UNK        -0.4232 
     30 C          24.2989   -1.4931   -3.2454 C.2       2 UNK         0.4993 
     31 O          24.2693   -0.3148   -3.6025 O.2       2 UNK        -0.5286 
     32 CA         24.6343   -1.8295   -1.7813 C.3       2 UNK         0.0209 
     33 CB         23.3461   -1.9802   -0.9568 C.3       2 UNK        -0.1931 
     34 N          25.4822   -3.0177   -1.5907 N.am      2 UNK        -0.4546 
     35 C          26.6741   -3.2154   -2.1744 C.2       1 UNK         0.5154 
     36 O          27.1342   -2.4652   -3.0388 O.2       1 UNK        -0.5181 
     37 C          26.5044    2.4153   -4.8148 C.2       5 UNK         0.5014 
     38 O          26.8893    3.5491   -5.1026 O.2       5 UNK        -0.5248 
     39 N          25.3003    1.9251   -5.1492 N.am      6 UNK        -0.4434 
     40 CA         24.3068    2.6325   -5.9600 C.3       6 UNK         0.0363 
     41 CB         22.9793    1.8579   -5.9436 C.3       6 UNK        -0.1936 
     42 C          24.7789    2.8805   -7.4033 C.2       6 UNK         0.5081 
     43 O          24.5768    3.9789   -7.9220 O.2       6 UNK        -0.5248 
     44 N          25.4084    1.8699   -8.0205 N.am      7 UNK        -0.4718 
     45 CA         26.0090    1.9672   -9.3552 C.3       7 UNK         0.0273 
     46 CB         26.3094    0.5552   -9.8793 C.3       7 UNK        -0.1935 
     47 C          27.2826    2.8319   -9.3865 C.2       7 UNK         0.5018 
     48 O          27.5545    3.4676  -10.4061 O.2       7 UNK        -0.5186 
     49 N          28.0461    2.8183   -8.2849 N.am      8 UNK        -0.4240 
     50 CA         29.3130    3.5056   -8.0097 C.3       8 UNK         0.0235 
     51 CB         29.1754    5.0366   -8.1204 C.3       8 UNK        -0.2000 
     52 C          30.4914    2.9735   -8.8397 C.2       8 UNK         0.4941 
     53 O          31.4935    2.5450   -8.2663 O.2       8 UNK        -0.5273 
     54 N          30.3468    2.9860  -10.1707 N.am      9 UNK        -0.4262 
     55 CA         31.3500    2.5319  -11.1380 C.3       9 UNK         0.0264 
     56 CB         30.9163    2.9573  -12.5497 C.3       9 UNK        -0.1955 
     57 C          31.6161    1.0171  -11.0924 C.2       9 UNK         0.5031 
     58 O          32.7104    0.5885  -11.4606 O.2       9 UNK        -0.5390 
     59 N          30.6285    0.2367  -10.6297 N.am      10 UNK        -0.4204 
     60 CA         30.6772   -1.2249  -10.5176 C.3       10 UNK         0.0237 
     61 CB         29.3078   -1.7392  -10.0502 C.3       10 UNK        -0.1985 
     62 C          31.7865   -1.7555   -9.5916 C.2       10 UNK         0.4970 
     63 O          32.2842   -2.8560   -9.8317 O.2       10 UNK        -0.4914 
     64 N          32.1572   -0.9714   -8.5705 N.am      11 UNK        -0.4285 
     65 CA         33.2829   -1.2583   -7.6691 C.3       11 UNK         0.1007 
     66 C          34.6623   -0.7654   -8.2070 C.2       11 UNK         0.5703 
     67 N          34.7492   -0.1517   -9.3827 N.am      11 UNK        -0.7361 
     68 O          35.6857   -0.9584   -7.5557 O.2       11 UNK        -0.4986 
     69 C69        32.9789   -0.7689   -6.2244 C.3       12 UNK        -0.0947 
     70 S70        33.7071   -1.8638   -4.9546 S.3       12 UNK        -0.2240 
     71 C71        32.2969   -2.9329   -4.5198 C.3       12 UNK         0.0194 
     72 H72        30.2542   -5.0794   -4.5739 H         1 UNK         0.0906 
     73 H73        29.8070   -6.7872   -4.5110 H         1 UNK         0.0906 
     74 H74        29.1465   -5.7482   -5.7729 H         1 UNK         0.0906 
     75 H75        29.4390   -4.4675   -2.4958 H         1 UNK         0.3140 
     76 H76        26.8163   -5.2775   -1.6019 H         1 UNK         0.1085 
     77 H77        27.3656   -4.3655    0.4747 H         1 UNK         0.0836 
     78 H78        28.3514   -3.1032   -0.1553 H         1 UNK         0.0836 
     79 H79        31.8828   -4.4396    0.3809 H         1 UNK         0.0731 
     80 H80        30.7793   -3.3630    1.1935 H         1 UNK         0.0731 
     81 H81        32.0625   -4.3425   -2.1903 H         1 UNK         0.1312 
     82 H82        30.9861   -0.5883   -3.9788 H         1 UNK         0.1406 
     83 H83        29.9891   -1.3759    0.1060 H         1 UNK         0.1631 
     84 H84        29.9019    1.1021   -2.7135 H         1 UNK         0.0717 
     85 H85        30.1880    1.0858   -0.9943 H         1 UNK         0.0717 
     86 H86        26.0727    1.4475   -2.3411 H         1 UNK         0.0934 
     87 H87        27.4115    2.5419   -2.1405 H         1 UNK         0.0934 
     88 H88        28.4554    1.8555   -4.2051 H         1 UNK         0.0739 
     89 H89        27.0779   -0.6297   -3.9895 H         1 UNK         0.3093 
     90 H90        27.4725   -1.5583   -7.4329 H         1 UNK         0.0818 
     91 H91        29.6753   -2.1377   -6.4906 H         1 UNK         0.0819 
     92 H92        28.9370   -2.6376   -4.9739 H         1 UNK         0.0819 
     93 H93        28.6054   -3.5276   -6.4655 H         1 UNK         0.0819 
     94 H94        26.4113   -2.7567   -4.9938 H         1 UNK         0.3041 
     95 H95        23.0585   -1.7290   -5.6781 H         1 UNK         0.0784 
     96 H96        23.3607   -3.7079   -7.1805 H         1 UNK         0.0793 
     97 H97        24.3308   -4.5088   -5.9514 H         1 UNK         0.0793 
     98 H98        22.6242   -4.1716   -5.6558 H         1 UNK         0.0793 
     99 H99        24.1650   -3.4626   -3.6953 H         1 UNK         0.3024 
    100 H100       25.1899   -0.9766   -1.3861 H         1 UNK         0.1171 
    101 H101       23.5644   -2.0858    0.1061 H         1 UNK         0.0786 
    102 H102       22.7070   -1.1028   -1.0672 H         1 UNK         0.0786 
    103 H103       22.7648   -2.8485   -1.2695 H         1 UNK         0.0786 
    104 H104       25.1685   -3.6804   -0.8958 H         1 UNK         0.2977 
    105 H105       25.0318    1.0096   -4.7951 H         1 UNK         0.3127 
    106 H106       24.1361    3.6065   -5.4965 H         1 UNK         0.0770 
    107 H107       23.0855    0.8631   -6.3771 H         1 UNK         0.0814 
    108 H108       22.2139    2.3836   -6.5159 H         1 UNK         0.0814 
    109 H109       22.6019    1.7398   -4.9276 H         1 UNK         0.0814 
    110 H110       25.4647    0.9703   -7.5535 H         1 UNK         0.2983 
    111 H111       25.2816    2.4325  -10.0241 H         1 UNK         0.0947 
    112 H112       26.7500    0.5903  -10.8766 H         1 UNK         0.0806 
    113 H113       25.4007   -0.0435   -9.9465 H         1 UNK         0.0806 
    114 H114       27.0059    0.0287   -9.2277 H         1 UNK         0.0806 
    115 H115       27.7858    2.1556   -7.5586 H         1 UNK         0.3000 
    116 H116       29.5396    3.2765   -6.9668 H         1 UNK         0.0850 
    117 H117       30.1010    5.5313   -7.8236 H         1 UNK         0.0810 
    118 H118       28.3856    5.4066   -7.4662 H         1 UNK         0.0810 
    119 H119       28.9470    5.3599   -9.1361 H         1 UNK         0.0810 
    120 H120       29.4587    3.3221  -10.5362 H         1 UNK         0.3040 
    121 H121       32.2910    3.0335  -10.9022 H         1 UNK         0.0766 
    122 H122       30.8127    4.0401  -12.6234 H         1 UNK         0.0812 
    123 H123       29.9626    2.5090  -12.8317 H         1 UNK         0.0812 
    124 H124       31.6536    2.6526  -13.2939 H         1 UNK         0.0812 
    125 H125       29.7723    0.6875  -10.3444 H         1 UNK         0.3205 
    126 H126       30.8715   -1.6228  -11.5158 H         1 UNK         0.0754 
    127 H127       29.3055   -2.8264   -9.9585 H         1 UNK         0.0769 
    128 H128       28.5197   -1.4741  -10.7550 H         1 UNK         0.0769 
    129 H129       29.0470   -1.3286   -9.0757 H         1 UNK         0.0769 
    130 H130       31.7244   -0.0641   -8.4664 H         1 UNK         0.2981 
    131 H131       33.3772   -2.3448   -7.6231 H         1 UNK         0.0541 
    132 H132       35.6544    0.1485   -9.7070 H         1 UNK         0.3459 
    133 H133       33.9344    0.0039   -9.9653 H         1 UNK         0.3459 
    134 H134       31.9022   -0.7217   -6.0586 H         1 UNK         0.0612 
    135 H135       33.3396    0.2493   -6.0674 H         1 UNK         0.0612 
    136 H136       31.5706   -2.9523   -5.3313 H         1 UNK         0.0624 
    137 H137       32.6701   -3.9541   -4.4295 H         1 UNK         0.0624 
@<TRIPOS>BOND
     1    1    2 1    
     2    1   72 1    
     3    1   73 1    
     4    1   74 1    
     5    2    3 2    
     6    2    4 am   BACKBONE|DICT|INTERRES
     7    4    5 1    
     8    4   75 1    
     9    5    6 1    
    10    5   35 1    
    11    5   76 1    
    12    6    7 1    
    13    6   77 1    
    14    6   78 1    
    15    7    8 1    
    16    8    9 1    
    17    8   79 1    
    18    8   80 1    
    19    9   10 ar   
    20    9   14 ar   
    21   10   11 ar   
    22   10   81 1    
    23   11   12 ar   
    24   11   71 1    
    25   12   13 ar   
    26   12   82 1    
    27   13   14 ar   
    28   13   15 1    
    29   14   83 1    
    30   15   16 1    
    31   15   84 1    
    32   15   85 1    
    33   16   17 1    
    34   17   18 1    
    35   17   86 1    
    36   17   87 1    
    37   18   19 1    
    38   18   37 1    
    39   18   88 1    
    40   19   20 am   BACKBONE|DICT|INTERRES
    41   19   89 1    
    42   20   21 2    
    43   20   22 1    
    44   22   23 1    
    45   22   24 1    
    46   22   90 1    
    47   23   91 1    
    48   23   92 1    
    49   23   93 1    
    50   24   25 am   BACKBONE|DICT|INTERRES
    51   24   94 1    
    52   25   26 2    
    53   25   27 1    
    54   27   28 1    
    55   27   29 1    
    56   27   95 1    
    57   28   96 1    
    58   28   97 1    
    59   28   98 1    
    60   29   30 am   BACKBONE|DICT|INTERRES
    61   29   99 1    
    62   30   31 2    
    63   30   32 1    
    64   32   33 1    
    65   32   34 1    
    66   32  100 1    
    67   33  101 1    
    68   33  102 1    
    69   33  103 1    
    70   34   35 am   BACKBONE|DICT|INTERRES
    71   34  104 1    
    72   35   36 2    
    73   37   38 2    
    74   37   39 am   BACKBONE|DICT|INTERRES
    75   39   40 1    
    76   39  105 1    
    77   40   41 1    
    78   40   42 1    
    79   40  106 1    
    80   41  107 1    
    81   41  108 1    
    82   41  109 1    
    83   42   43 2    
    84   42   44 am   BACKBONE|DICT|INTERRES
    85   44   45 1    
    86   44  110 1    
    87   45   46 1    
    88   45   47 1    
    89   45  111 1    
    90   46  112 1    
    91   46  113 1    
    92   46  114 1    
    93   47   48 2    
    94   47   49 am   BACKBONE|DICT|INTERRES
    95   49   50 1    
    96   49  115 1    
    97   50   51 1    
    98   50   52 1    
    99   50  116 1    
   100   51  117 1    
   101   51  118 1    
   102   51  119 1    
   103   52   53 2    
   104   52   54 am   BACKBONE|DICT|INTERRES
   105   54   55 1    
   106   54  120 1    
   107   55   56 1    
   108   55   57 1    
   109   55  121 1    
   110   56  122 1    
   111   56  123 1    
   112   56  124 1    
   113   57   58 2    
   114   57   59 am   BACKBONE|DICT|INTERRES
   115   59   60 1    
   116   59  125 1    
   117   60   61 1    
   118   60   62 1    
   119   60  126 1    
   120   61  127 1    
   121   61  128 1    
   122   61  129 1    
   123   62   63 2    
   124   62   64 am   BACKBONE|DICT|INTERRES
   125   64   65 1    
   126   64  130 1    
   127   65   66 1    
   128   65   69 1    
   129   65  131 1    
   130   66   67 am   BACKBONE|DICT|INTERRES
   131   66   68 2    
   132   67  132 1    
   133   67  133 1    
   134   69   70 1    
   135   69  134 1    
   136   69  135 1    
   137   70   71 1    
   138   71  136 1    
   139   71  137 1    
@<TRIPOS>SUBSTRUCTURE
     1 UNK         1 GROUP             0       ****    0 ROOT    
