@<TRIPOS>MOLECULE
3R137
137   139    1
SMALL
USER_CHARGES


@<TRIPOS>ATOM
      1 CA         29.0859   -4.3203    1.1895 C.3       0 UNK        -0.2020 
      2 C          28.9180   -2.8822    0.7223 C.2       0 UNK         0.4855 
      3 O          28.5295   -2.0231    1.5139 O.2       0 UNK        -0.5197 
      4 N          29.2114   -2.6155   -0.5571 N.am      1 UNK        -0.4892 
      5 CA         29.0960   -1.2931   -1.1878 C.3       1 UNK         0.0835 
      6 C6         29.8395   -1.2366   -2.5447 C.3       12 UNK        -0.0855 
      7 S7         31.6524   -1.3791   -2.3555 S.3       12 UNK        -0.2931 
      8 C8         31.9753   -3.1413   -2.7030 C.3       12 UNK         0.0378 
      9 C9         31.7093   -3.4886   -4.1592 C.ar      12 UNK        -0.0802 
     10 C10        32.6254   -3.1153   -5.1442 C.ar      12 UNK        -0.0944 
     11 C11        32.3762   -3.3792   -6.4971 C.ar      12 UNK        -0.0787 
     12 C12        31.1828   -4.0182   -6.8494 C.ar      12 UNK        -0.0862 
     13 C13        30.2599   -4.4078   -5.8729 C.ar      12 UNK        -0.0733 
     14 C14        30.5436   -4.1635   -4.5261 C.ar      12 UNK        -0.0832 
     15 C15        28.9337   -5.0401   -6.2854 C.3       12 UNK         0.0240 
     16 S16        27.4828   -4.2502   -5.5009 S.3       12 UNK        -0.2522 
     17 C17        27.7640   -2.4807   -5.8502 C.3       12 UNK        -0.0967 
     18 CA         26.8049   -1.9149   -6.9203 C.3       5 UNK         0.0660 
     19 N          25.3996   -1.9823   -6.5238 N.am      5 UNK        -0.4015 
     20 C          24.3696   -1.9869   -7.3808 C.2       4 UNK         0.4946 
     21 O          24.4938   -2.0463   -8.6045 O.2       4 UNK        -0.5353 
     22 CA         22.9557   -1.8926   -6.7777 C.3       4 UNK         0.0277 
     23 CB         22.3779   -3.2976   -6.5426 C.3       4 UNK        -0.1981 
     24 N          22.9039   -1.1311   -5.5265 N.am      4 UNK        -0.4209 
     25 C          23.1748    0.1778   -5.4159 C.2       3 UNK         0.4942 
     26 O          23.4569    0.9038   -6.3687 O.2       3 UNK        -0.5208 
     27 CA         23.1861    0.7619   -3.9915 C.3       3 UNK         0.0250 
     28 CB         21.7733    1.2094   -3.5841 C.3       3 UNK        -0.1990 
     29 N          23.7285   -0.1451   -2.9704 N.am      3 UNK        -0.4232 
     30 C          24.9421   -0.7149   -3.0052 C.2       2 UNK         0.4993 
     31 O          25.7302   -0.5876   -3.9450 O.2       2 UNK        -0.5286 
     32 CA         25.2977   -1.6376   -1.8270 C.3       2 UNK         0.0209 
     33 CB         24.6547   -3.0201   -2.0311 C.3       2 UNK        -0.1931 
     34 N          26.7414   -1.8212   -1.6513 N.am      2 UNK        -0.4546 
     35 C          27.6237   -0.8564   -1.3495 C.2       1 UNK         0.5154 
     36 O          27.3177    0.3232   -1.1676 O.2       1 UNK        -0.5181 
     37 C          27.1802   -0.4609   -7.2386 C.2       5 UNK         0.5014 
     38 O          27.7246   -0.2014   -8.3105 O.2       5 UNK        -0.5248 
     39 N          26.8667    0.4589   -6.3119 N.am      6 UNK        -0.4434 
     40 CA         27.1989    1.8868   -6.3727 C.3       6 UNK         0.0363 
     41 CB         26.7170    2.5781   -5.0889 C.3       6 UNK        -0.1936 
     42 C          26.6598    2.6175   -7.6144 C.2       6 UNK         0.5081 
     43 O          27.2878    3.5759   -8.0640 O.2       6 UNK        -0.5248 
     44 N          25.5392    2.1330   -8.1683 N.am      7 UNK        -0.4718 
     45 CA         24.9749    2.5614   -9.4511 C.3       7 UNK         0.0273 
     46 CB         23.6303    1.8488   -9.6682 C.3       7 UNK        -0.1935 
     47 C          25.9078    2.3254  -10.6569 C.2       7 UNK         0.5018 
     48 O          25.8057    3.0627  -11.6385 O.2       7 UNK        -0.5186 
     49 N          26.7946    1.3243  -10.5644 N.am      8 UNK        -0.4240 
     50 CA         27.8637    1.0636  -11.5255 C.3       8 UNK         0.0235 
     51 CB         27.9972   -0.4515  -11.7643 C.3       8 UNK        -0.2000 
     52 C          29.1725    1.6774  -11.0090 C.2       8 UNK         0.4941 
     53 O          29.7051    2.5831  -11.6518 O.2       8 UNK        -0.5273 
     54 N          29.6459    1.1967   -9.8517 N.am      9 UNK        -0.4262 
     55 CA         30.8334    1.6621   -9.1388 C.3       9 UNK         0.0264 
     56 CB         32.1221    1.4038   -9.9485 C.3       9 UNK        -0.1955 
     57 C          30.9157    0.9297   -7.7957 C.2       9 UNK         0.5031 
     58 O          30.8801   -0.3016   -7.7750 O.2       9 UNK        -0.5390 
     59 N          31.0834    1.6862   -6.7057 N.am      10 UNK        -0.4204 
     60 CA         31.3827    1.1613   -5.3728 C.3       10 UNK         0.0237 
     61 CB         30.7360    2.0723   -4.3117 C.3       10 UNK        -0.1985 
     62 C          32.9093    1.0770   -5.2229 C.2       10 UNK         0.4970 
     63 O          33.5157    1.9547   -4.6067 O.2       10 UNK        -0.4914 
     64 N          33.5081    0.0653   -5.8620 N.am      11 UNK        -0.4285 
     65 CA         34.9653   -0.1056   -5.9822 C.3       11 UNK         0.1007 
     66 C          35.7237   -0.5223   -4.6844 C.2       11 UNK         0.5703 
     67 N          35.0546   -0.7685   -3.5641 N.am      11 UNK        -0.7361 
     68 O          36.9497   -0.6054   -4.6915 O.2       11 UNK        -0.4986 
     69 C69        35.3361   -0.9573   -7.2285 C.3       12 UNK        -0.0947 
     70 S70        35.0789   -2.7604   -7.0733 S.3       12 UNK        -0.2240 
     71 C71        33.3443   -2.9661   -7.6081 C.3       12 UNK         0.0194 
     72 H72        28.1335   -4.7125    1.5451 H         1 UNK         0.0906 
     73 H73        29.4441   -4.9711    0.3921 H         1 UNK         0.0906 
     74 H74        29.8009   -4.3664    2.0106 H         1 UNK         0.0906 
     75 H75        29.5413   -3.3595   -1.1524 H         1 UNK         0.3140 
     76 H76        29.5617   -0.5655   -0.5186 H         1 UNK         0.1085 
     77 H77        29.6445   -0.2842   -3.0397 H         1 UNK         0.0836 
     78 H78        29.4658   -2.0002   -3.2259 H         1 UNK         0.0836 
     79 H79        33.0186   -3.3575   -2.4676 H         1 UNK         0.0731 
     80 H80        31.3815   -3.7673   -2.0367 H         1 UNK         0.0731 
     81 H81        33.5277   -2.6076   -4.8424 H         1 UNK         0.1312 
     82 H82        30.9656   -4.1991   -7.8934 H         1 UNK         0.1406 
     83 H83        29.8298   -4.4588   -3.7695 H         1 UNK         0.1631 
     84 H84        28.9471   -6.0983   -6.0217 H         1 UNK         0.0717 
     85 H85        28.8044   -4.9916   -7.3677 H         1 UNK         0.0717 
     86 H86        27.6629   -1.9420   -4.9080 H         1 UNK         0.0934 
     87 H87        28.7958   -2.3162   -6.1641 H         1 UNK         0.0934 
     88 H88        26.9418   -2.4988   -7.8335 H         1 UNK         0.0739 
     89 H89        25.2173   -1.8724   -5.5345 H         1 UNK         0.3093 
     90 H90        22.3244   -1.3783   -7.5058 H         1 UNK         0.0818 
     91 H91        21.3455   -3.2503   -6.1957 H         1 UNK         0.0819 
     92 H92        22.3806   -3.8790   -7.4658 H         1 UNK         0.0819 
     93 H93        22.9567   -3.8556   -5.8053 H         1 UNK         0.0819 
     94 H94        22.6761   -1.6440   -4.6874 H         1 UNK         0.3041 
     95 H95        23.8251    1.6453   -4.0068 H         1 UNK         0.0784 
     96 H96        21.3563    1.9004   -4.3185 H         1 UNK         0.0793 
     97 H97        21.0872    0.3652   -3.5049 H         1 UNK         0.0793 
     98 H98        21.7815    1.7277   -2.6250 H         1 UNK         0.0793 
     99 H99        23.1361   -0.3195   -2.1709 H         1 UNK         0.3024 
    100 H100       24.9070   -1.1895   -0.9107 H         1 UNK         0.1171 
    101 H101       23.5706   -2.9445   -2.1250 H         1 UNK         0.0786 
    102 H102       24.8559   -3.6797   -1.1866 H         1 UNK         0.0786 
    103 H103       25.0272   -3.5082   -2.9333 H         1 UNK         0.0786 
    104 H104       27.0939   -2.7574   -1.7801 H         1 UNK         0.2977 
    105 H105       26.4155    0.1392   -5.4551 H         1 UNK         0.3127 
    106 H106       28.2864    1.9551   -6.4089 H         1 UNK         0.0770 
    107 H107       25.6293    2.6070   -5.0385 H         1 UNK         0.0814 
    108 H108       27.0710    3.6090   -5.0471 H         1 UNK         0.0814 
    109 H109       27.0829    2.0710   -4.1956 H         1 UNK         0.0814 
    110 H110       25.0380    1.4036   -7.6718 H         1 UNK         0.2983 
    111 H111       24.7911    3.6360   -9.3886 H         1 UNK         0.0947 
    112 H112       23.1747    2.1490  -10.6129 H         1 UNK         0.0806 
    113 H113       22.9212    2.0909   -8.8762 H         1 UNK         0.0806 
    114 H114       23.7489    0.7644   -9.6905 H         1 UNK         0.0806 
    115 H115       26.8465    0.8011   -9.6945 H         1 UNK         0.3000 
    116 H116       27.6302    1.5302  -12.4851 H         1 UNK         0.0850 
    117 H117       28.8105   -0.6652  -12.4590 H         1 UNK         0.0810 
    118 H118       27.0849   -0.8611  -12.1981 H         1 UNK         0.0810 
    119 H119       28.2006   -1.0010  -10.8448 H         1 UNK         0.0810 
    120 H120       29.1071    0.4858   -9.3564 H         1 UNK         0.3040 
    121 H121       30.7257    2.7342   -8.9623 H         1 UNK         0.0766 
    122 H122       32.1526    1.9921  -10.8650 H         1 UNK         0.0812 
    123 H123       32.2183    0.3522  -10.2220 H         1 UNK         0.0812 
    124 H124       33.0075    1.6715   -9.3702 H         1 UNK         0.0812 
    125 H125       31.1504    2.6887   -6.8142 H         1 UNK         0.3205 
    126 H126       30.9701    0.1564   -5.2531 H         1 UNK         0.0754 
    127 H127       31.0107    1.7535   -3.3053 H         1 UNK         0.0769 
    128 H128       29.6489    2.0421   -4.3731 H         1 UNK         0.0769 
    129 H129       31.0492    3.1116   -4.4188 H         1 UNK         0.0769 
    130 H130       32.9337   -0.6066   -6.3529 H         1 UNK         0.2981 
    131 H131       35.3533    0.8924   -6.1954 H         1 UNK         0.0541 
    132 H132       34.0528   -0.6668   -3.5270 H         1 UNK         0.3459 
    133 H133       35.5661   -1.0255   -2.7351 H         1 UNK         0.3459 
    134 H134       36.3928   -0.8103   -7.4585 H         1 UNK         0.0612 
    135 H135       34.8045   -0.5908   -8.1081 H         1 UNK         0.0612 
    136 H136       32.9790   -2.0504   -8.0735 H         1 UNK         0.0624 
    137 H137       33.3357   -3.7268   -8.3901 H         1 UNK         0.0624 
@<TRIPOS>BOND
     1    1    2 1    
     2    1   72 1    
     3    1   73 1    
     4    1   74 1    
     5    2    3 2    
     6    2    4 am   BACKBONE|DICT|INTERRES
     7    4    5 1    
     8    4   75 1    
     9    5    6 1    
    10    5   35 1    
    11    5   76 1    
    12    6    7 1    
    13    6   77 1    
    14    6   78 1    
    15    7    8 1    
    16    8    9 1    
    17    8   79 1    
    18    8   80 1    
    19    9   10 ar   
    20    9   14 ar   
    21   10   11 ar   
    22   10   81 1    
    23   11   12 ar   
    24   11   71 1    
    25   12   13 ar   
    26   12   82 1    
    27   13   14 ar   
    28   13   15 1    
    29   14   83 1    
    30   15   16 1    
    31   15   84 1    
    32   15   85 1    
    33   16   17 1    
    34   17   18 1    
    35   17   86 1    
    36   17   87 1    
    37   18   19 1    
    38   18   37 1    
    39   18   88 1    
    40   19   20 am   BACKBONE|DICT|INTERRES
    41   19   89 1    
    42   20   21 2    
    43   20   22 1    
    44   22   23 1    
    45   22   24 1    
    46   22   90 1    
    47   23   91 1    
    48   23   92 1    
    49   23   93 1    
    50   24   25 am   BACKBONE|DICT|INTERRES
    51   24   94 1    
    52   25   26 2    
    53   25   27 1    
    54   27   28 1    
    55   27   29 1    
    56   27   95 1    
    57   28   96 1    
    58   28   97 1    
    59   28   98 1    
    60   29   30 am   BACKBONE|DICT|INTERRES
    61   29   99 1    
    62   30   31 2    
    63   30   32 1    
    64   32   33 1    
    65   32   34 1    
    66   32  100 1    
    67   33  101 1    
    68   33  102 1    
    69   33  103 1    
    70   34   35 am   BACKBONE|DICT|INTERRES
    71   34  104 1    
    72   35   36 2    
    73   37   38 2    
    74   37   39 am   BACKBONE|DICT|INTERRES
    75   39   40 1    
    76   39  105 1    
    77   40   41 1    
    78   40   42 1    
    79   40  106 1    
    80   41  107 1    
    81   41  108 1    
    82   41  109 1    
    83   42   43 2    
    84   42   44 am   BACKBONE|DICT|INTERRES
    85   44   45 1    
    86   44  110 1    
    87   45   46 1    
    88   45   47 1    
    89   45  111 1    
    90   46  112 1    
    91   46  113 1    
    92   46  114 1    
    93   47   48 2    
    94   47   49 am   BACKBONE|DICT|INTERRES
    95   49   50 1    
    96   49  115 1    
    97   50   51 1    
    98   50   52 1    
    99   50  116 1    
   100   51  117 1    
   101   51  118 1    
   102   51  119 1    
   103   52   53 2    
   104   52   54 am   BACKBONE|DICT|INTERRES
   105   54   55 1    
   106   54  120 1    
   107   55   56 1    
   108   55   57 1    
   109   55  121 1    
   110   56  122 1    
   111   56  123 1    
   112   56  124 1    
   113   57   58 2    
   114   57   59 am   BACKBONE|DICT|INTERRES
   115   59   60 1    
   116   59  125 1    
   117   60   61 1    
   118   60   62 1    
   119   60  126 1    
   120   61  127 1    
   121   61  128 1    
   122   61  129 1    
   123   62   63 2    
   124   62   64 am   BACKBONE|DICT|INTERRES
   125   64   65 1    
   126   64  130 1    
   127   65   66 1    
   128   65   69 1    
   129   65  131 1    
   130   66   67 am   BACKBONE|DICT|INTERRES
   131   66   68 2    
   132   67  132 1    
   133   67  133 1    
   134   69   70 1    
   135   69  134 1    
   136   69  135 1    
   137   70   71 1    
   138   71  136 1    
   139   71  137 1    
@<TRIPOS>SUBSTRUCTURE
     1 UNK         1 GROUP             0       ****    0 ROOT    
