@<TRIPOS>MOLECULE
3R137
137   139    1
SMALL
USER_CHARGES


@<TRIPOS>ATOM
      1 CA         24.9328   -4.2175   -0.3160 C.3       0 UNK        -0.2020 
      2 C          25.8330   -4.4309   -1.5302 C.2       0 UNK         0.4855 
      3 O          25.4240   -5.1210   -2.4605 O.2       0 UNK        -0.5197 
      4 N          27.0536   -3.8790   -1.5705 N.am      1 UNK        -0.4892 
      5 CA         27.6738   -3.0178   -0.5566 C.3       1 UNK         0.0835 
      6 C6         29.2216   -3.0765   -0.5975 C.3       12 UNK        -0.0855 
      7 S7         29.8462   -4.7863   -0.4313 S.3       12 UNK        -0.2931 
      8 C8         31.3432   -4.7696   -1.4783 C.3       12 UNK         0.0378 
      9 C9         31.1064   -4.2934   -2.9100 C.ar      12 UNK        -0.0802 
     10 C10        32.0001   -3.3857   -3.4874 C.ar      12 UNK        -0.0944 
     11 C11        31.8146   -2.9333   -4.7965 C.ar      12 UNK        -0.0787 
     12 C12        30.7095   -3.3804   -5.5269 C.ar      12 UNK        -0.0862 
     13 C13        29.8119   -4.2960   -4.9664 C.ar      12 UNK        -0.0733 
     14 C14        30.0218   -4.7584   -3.6633 C.ar      12 UNK        -0.0832 
     15 C15        28.6377   -4.8112   -5.7843 C.3       12 UNK         0.0240 
     16 S16        27.0814   -3.9632   -5.3529 S.3       12 UNK        -0.2522 
     17 C17        26.3124   -3.7756   -7.0058 C.3       12 UNK        -0.0967 
     18 CA         26.2800   -2.3310   -7.5792 C.3       5 UNK         0.0660 
     19 N          25.1278   -1.5633   -7.0995 N.am      5 UNK        -0.4015 
     20 C          24.7562   -0.3723   -7.5931 C.2       4 UNK         0.4946 
     21 O          25.3114    0.1634   -8.5533 O.2       4 UNK        -0.5353 
     22 CA         23.6112    0.3791   -6.8882 C.3       4 UNK         0.0277 
     23 CB         22.3189    0.2710   -7.7133 C.3       4 UNK        -0.1981 
     24 N          23.3378   -0.0328   -5.5048 N.am      4 UNK        -0.4209 
     25 C          24.2171   -0.0219   -4.4932 C.2       3 UNK         0.4942 
     26 O          25.4103    0.2668   -4.6227 O.2       3 UNK        -0.5208 
     27 CA         23.6712   -0.4451   -3.1242 C.3       3 UNK         0.0250 
     28 CB         23.3167   -1.9447   -3.1070 C.3       3 UNK        -0.1990 
     29 N          24.6806   -0.1762   -2.1073 N.am      3 UNK        -0.4232 
     30 C          24.4608    0.0866   -0.8163 C.2       2 UNK         0.4993 
     31 O          23.3375    0.1540   -0.3135 O.2       2 UNK        -0.5286 
     32 CA         25.7178    0.2453    0.0651 C.3       2 UNK         0.0209 
     33 CB         25.3910    0.7754    1.4741 C.3       2 UNK        -0.1931 
     34 N          26.4300   -1.0311    0.1907 N.am      2 UNK        -0.4546 
     35 C          27.1762   -1.5803   -0.7770 C.2       1 UNK         0.5154 
     36 O          27.4370   -1.0076   -1.8366 O.2       1 UNK        -0.5181 
     37 C          27.6116   -1.5639   -7.4066 C.2       5 UNK         0.5014 
     38 O          28.4841   -1.6797   -8.2662 O.2       5 UNK        -0.5248 
     39 N          27.7305   -0.7667   -6.3325 N.am      6 UNK        -0.4434 
     40 CA         28.9016    0.0645   -6.0578 C.3       6 UNK         0.0363 
     41 CB         28.8962    0.5010   -4.5863 C.3       6 UNK        -0.1936 
     42 C          28.9958    1.2817   -6.9871 C.2       6 UNK         0.5081 
     43 O          30.1046    1.7242   -7.2895 O.2       6 UNK        -0.5248 
     44 N          27.8427    1.7867   -7.4467 N.am      7 UNK        -0.4718 
     45 CA         27.7560    2.8305   -8.4675 C.3       7 UNK         0.0273 
     46 CB         26.3656    3.4852   -8.4371 C.3       7 UNK        -0.1935 
     47 C          28.0793    2.2705   -9.8609 C.2       7 UNK         0.5018 
     48 O          28.8190    2.9117  -10.6061 O.2       7 UNK        -0.5186 
     49 N          27.5633    1.0700  -10.1679 N.am      8 UNK        -0.4240 
     50 CA         27.8383    0.3318  -11.4050 C.3       8 UNK         0.0235 
     51 CB         26.9197   -0.8973  -11.4921 C.3       8 UNK        -0.2000 
     52 C          29.3157   -0.0767  -11.5435 C.2       8 UNK         0.4941 
     53 O          29.8913    0.0949  -12.6184 O.2       8 UNK        -0.5273 
     54 N          29.9116   -0.5745  -10.4500 N.am      9 UNK        -0.4262 
     55 CA         31.3392   -0.8970  -10.3485 C.3       9 UNK         0.0264 
     56 CB         31.5625   -1.7979   -9.1235 C.3       9 UNK        -0.1955 
     57 C          32.2465    0.3445  -10.2570 C.2       9 UNK         0.5031 
     58 O          33.4534    0.2165  -10.4668 O.2       9 UNK        -0.5390 
     59 N          31.6585    1.5040   -9.9280 N.am      10 UNK        -0.4204 
     60 CA         32.2907    2.8089   -9.7123 C.3       10 UNK         0.0237 
     61 CB         32.9167    3.3445  -11.0179 C.3       10 UNK        -0.1985 
     62 C          33.2651    2.8292   -8.5174 C.2       10 UNK         0.4970 
     63 O          34.2354    3.5894   -8.5394 O.2       10 UNK        -0.4914 
     64 N          32.9805    2.0178   -7.4899 N.am      11 UNK        -0.4285 
     65 CA         33.6857    2.0350   -6.2002 C.3       11 UNK         0.1007 
     66 C          33.0390    3.0002   -5.1648 C.2       11 UNK         0.5703 
     67 N          31.7977    3.4374   -5.3539 N.am      11 UNK        -0.7361 
     68 O          33.6835    3.3748   -4.1880 O.2       11 UNK        -0.4986 
     69 C69        33.9119    0.6065   -5.6351 C.3       12 UNK        -0.0947 
     70 S70        32.3950   -0.2515   -5.0954 S.3       12 UNK        -0.2240 
     71 C71        32.8269   -1.9837   -5.4207 C.3       12 UNK         0.0194 
     72 H72        25.4202   -4.5429    0.6022 H         1 UNK         0.0906 
     73 H73        24.6449   -3.1717   -0.2206 H         1 UNK         0.0906 
     74 H74        24.0162   -4.7981   -0.4195 H         1 UNK         0.0906 
     75 H75        27.6003   -3.9952   -2.4118 H         1 UNK         0.3140 
     76 H76        27.3714   -3.3516    0.4371 H         1 UNK         0.1085 
     77 H77        29.5934   -2.6335   -1.5230 H         1 UNK         0.0836 
     78 H78        29.6470   -2.4803    0.2121 H         1 UNK         0.0836 
     79 H79        32.0909   -4.1449   -0.9869 H         1 UNK         0.0731 
     80 H80        31.7590   -5.7773   -1.5104 H         1 UNK         0.0731 
     81 H81        32.8503   -3.0319   -2.9200 H         1 UNK         0.1312 
     82 H82        30.5548   -3.0264   -6.5369 H         1 UNK         0.1406 
     83 H83        29.3355   -5.4748   -3.2324 H         1 UNK         0.1631 
     84 H84        28.5140   -5.8835   -5.6265 H         1 UNK         0.0717 
     85 H85        28.8607   -4.6851   -6.8446 H         1 UNK         0.0717 
     86 H86        26.8249   -4.4262   -7.7159 H         1 UNK         0.0934 
     87 H87        25.3000   -4.1794   -6.9536 H         1 UNK         0.0934 
     88 H88        26.1298   -2.4322   -8.6560 H         1 UNK         0.0739 
     89 H89        24.6371   -1.9315   -6.2986 H         1 UNK         0.3093 
     90 H90        23.9049    1.4304   -6.8550 H         1 UNK         0.0818 
     91 H91        21.5285    0.8980   -7.3002 H         1 UNK         0.0819 
     92 H92        22.4826    0.5986   -8.7413 H         1 UNK         0.0819 
     93 H93        21.9500   -0.7547   -7.7538 H         1 UNK         0.0819 
     94 H94        22.3843   -0.2994   -5.3037 H         1 UNK         0.3041 
     95 H95        22.7794    0.1497   -2.9153 H         1 UNK         0.0784 
     96 H96        22.5305   -2.1785   -3.8255 H         1 UNK         0.0793 
     97 H97        24.1808   -2.5632   -3.3543 H         1 UNK         0.0793 
     98 H98        22.9546   -2.2561   -2.1270 H         1 UNK         0.0793 
     99 H99        25.6405   -0.2138   -2.4434 H         1 UNK         0.3024 
    100 H100       26.3706    0.9735   -0.4228 H         1 UNK         0.1171 
    101 H101       24.8684    1.7314    1.4192 H         1 UNK         0.0786 
    102 H102       26.2980    0.9373    2.0569 H         1 UNK         0.0786 
    103 H103       24.7533    0.0867    2.0300 H         1 UNK         0.0786 
    104 H104       26.2474   -1.5590    1.0322 H         1 UNK         0.2977 
    105 H105       26.9571   -0.6912   -5.6796 H         1 UNK         0.3127 
    106 H106       29.7891   -0.5448   -6.2308 H         1 UNK         0.0770 
    107 H107       27.9909    1.0498   -4.3259 H         1 UNK         0.0814 
    108 H108       29.7458    1.1486   -4.3660 H         1 UNK         0.0814 
    109 H109       28.9708   -0.3624   -3.9252 H         1 UNK         0.0814 
    110 H110       26.9786    1.3447   -7.1665 H         1 UNK         0.2983 
    111 H111       28.4962    3.6006   -8.2372 H         1 UNK         0.0947 
    112 H112       26.3070    4.3010   -9.1588 H         1 UNK         0.0806 
    113 H113       26.1471    3.9058   -7.4555 H         1 UNK         0.0806 
    114 H114       25.5727    2.7790   -8.6833 H         1 UNK         0.0806 
    115 H115       26.9095    0.6451   -9.5147 H         1 UNK         0.3000 
    116 H116       27.5988    0.9937  -12.2401 H         1 UNK         0.0850 
    117 H117       27.0571   -1.4189  -12.4401 H         1 UNK         0.0810 
    118 H118       25.8690   -0.6141  -11.4256 H         1 UNK         0.0810 
    119 H119       27.1246   -1.6121  -10.6955 H         1 UNK         0.0810 
    120 H120       29.3436   -0.7773   -9.6283 H         1 UNK         0.3040 
    121 H121       31.6305   -1.4526  -11.2423 H         1 UNK         0.0766 
    122 H122       32.6091   -2.0934   -9.0394 H         1 UNK         0.0812 
    123 H123       30.9716   -2.7116   -9.1883 H         1 UNK         0.0812 
    124 H124       31.2903   -1.2862   -8.1995 H         1 UNK         0.0812 
    125 H125       30.6615    1.4839   -9.7608 H         1 UNK         0.3205 
    126 H126       31.4791    3.4853   -9.4399 H         1 UNK         0.0754 
    127 H127       33.2480    4.3768  -10.8994 H         1 UNK         0.0769 
    128 H128       32.1961    3.3294  -11.8359 H         1 UNK         0.0769 
    129 H129       33.7838    2.7578  -11.3227 H         1 UNK         0.0769 
    130 H130       32.1056    1.5056   -7.5096 H         1 UNK         0.2981 
    131 H131       34.6855    2.4381   -6.3709 H         1 UNK         0.0541 
    132 H132       31.2453    3.0807   -6.1230 H         1 UNK         0.3459 
    133 H133       31.3896    4.0708   -4.6859 H         1 UNK         0.3459 
    134 H134       34.5935    0.6457   -4.7837 H         1 UNK         0.0612 
    135 H135       34.4147   -0.0020   -6.3885 H         1 UNK         0.0612 
    136 H136       32.8910   -2.1477   -6.4965 H         1 UNK         0.0624 
    137 H137       33.8208   -2.1873   -5.0188 H         1 UNK         0.0624 
@<TRIPOS>BOND
     1    1    2 1    
     2    1   72 1    
     3    1   73 1    
     4    1   74 1    
     5    2    3 2    
     6    2    4 am   BACKBONE|DICT|INTERRES
     7    4    5 1    
     8    4   75 1    
     9    5    6 1    
    10    5   35 1    
    11    5   76 1    
    12    6    7 1    
    13    6   77 1    
    14    6   78 1    
    15    7    8 1    
    16    8    9 1    
    17    8   79 1    
    18    8   80 1    
    19    9   10 ar   
    20    9   14 ar   
    21   10   11 ar   
    22   10   81 1    
    23   11   12 ar   
    24   11   71 1    
    25   12   13 ar   
    26   12   82 1    
    27   13   14 ar   
    28   13   15 1    
    29   14   83 1    
    30   15   16 1    
    31   15   84 1    
    32   15   85 1    
    33   16   17 1    
    34   17   18 1    
    35   17   86 1    
    36   17   87 1    
    37   18   19 1    
    38   18   37 1    
    39   18   88 1    
    40   19   20 am   BACKBONE|DICT|INTERRES
    41   19   89 1    
    42   20   21 2    
    43   20   22 1    
    44   22   23 1    
    45   22   24 1    
    46   22   90 1    
    47   23   91 1    
    48   23   92 1    
    49   23   93 1    
    50   24   25 am   BACKBONE|DICT|INTERRES
    51   24   94 1    
    52   25   26 2    
    53   25   27 1    
    54   27   28 1    
    55   27   29 1    
    56   27   95 1    
    57   28   96 1    
    58   28   97 1    
    59   28   98 1    
    60   29   30 am   BACKBONE|DICT|INTERRES
    61   29   99 1    
    62   30   31 2    
    63   30   32 1    
    64   32   33 1    
    65   32   34 1    
    66   32  100 1    
    67   33  101 1    
    68   33  102 1    
    69   33  103 1    
    70   34   35 am   BACKBONE|DICT|INTERRES
    71   34  104 1    
    72   35   36 2    
    73   37   38 2    
    74   37   39 am   BACKBONE|DICT|INTERRES
    75   39   40 1    
    76   39  105 1    
    77   40   41 1    
    78   40   42 1    
    79   40  106 1    
    80   41  107 1    
    81   41  108 1    
    82   41  109 1    
    83   42   43 2    
    84   42   44 am   BACKBONE|DICT|INTERRES
    85   44   45 1    
    86   44  110 1    
    87   45   46 1    
    88   45   47 1    
    89   45  111 1    
    90   46  112 1    
    91   46  113 1    
    92   46  114 1    
    93   47   48 2    
    94   47   49 am   BACKBONE|DICT|INTERRES
    95   49   50 1    
    96   49  115 1    
    97   50   51 1    
    98   50   52 1    
    99   50  116 1    
   100   51  117 1    
   101   51  118 1    
   102   51  119 1    
   103   52   53 2    
   104   52   54 am   BACKBONE|DICT|INTERRES
   105   54   55 1    
   106   54  120 1    
   107   55   56 1    
   108   55   57 1    
   109   55  121 1    
   110   56  122 1    
   111   56  123 1    
   112   56  124 1    
   113   57   58 2    
   114   57   59 am   BACKBONE|DICT|INTERRES
   115   59   60 1    
   116   59  125 1    
   117   60   61 1    
   118   60   62 1    
   119   60  126 1    
   120   61  127 1    
   121   61  128 1    
   122   61  129 1    
   123   62   63 2    
   124   62   64 am   BACKBONE|DICT|INTERRES
   125   64   65 1    
   126   64  130 1    
   127   65   66 1    
   128   65   69 1    
   129   65  131 1    
   130   66   67 am   BACKBONE|DICT|INTERRES
   131   66   68 2    
   132   67  132 1    
   133   67  133 1    
   134   69   70 1    
   135   69  134 1    
   136   69  135 1    
   137   70   71 1    
   138   71  136 1    
   139   71  137 1    
@<TRIPOS>SUBSTRUCTURE
     1 UNK         1 GROUP             0       ****    0 ROOT    
