@<TRIPOS>MOLECULE
3R137
137   139    1
SMALL
USER_CHARGES


@<TRIPOS>ATOM
      1 CA         26.4245   -6.5941   -6.4963 C.3       0 UNK        -0.2020 
      2 C          25.6882   -6.1001   -5.2602 C.2       0 UNK         0.4855 
      3 O          24.7190   -6.7263   -4.8319 O.2       0 UNK        -0.5197 
      4 N          26.1405   -4.9776   -4.6860 N.am      1 UNK        -0.4892 
      5 CA         25.5577   -4.3520   -3.4904 C.3       1 UNK         0.0835 
      6 C6         26.5592   -3.3639   -2.8283 C.3       12 UNK        -0.0855 
      7 S7         27.5979   -4.1822   -1.5748 S.3       12 UNK        -0.2931 
      8 C8         28.9626   -4.8778   -2.5613 C.3       12 UNK         0.0378 
      9 C9         29.9721   -3.8307   -3.0135 C.ar      12 UNK        -0.0802 
     10 C10        30.2547   -3.6620   -4.3724 C.ar      12 UNK        -0.0944 
     11 C11        31.2437   -2.7643   -4.7867 C.ar      12 UNK        -0.0787 
     12 C12        31.9409   -2.0175   -3.8312 C.ar      12 UNK        -0.0862 
     13 C13        31.6465   -2.1549   -2.4709 C.ar      12 UNK        -0.0733 
     14 C14        30.6723   -3.0739   -2.0688 C.ar      12 UNK        -0.0832 
     15 C15        32.3787   -1.3163   -1.4317 C.3       12 UNK         0.0240 
     16 S16        31.2648   -0.1361   -0.5995 S.3       12 UNK        -0.2522 
     17 C17        30.9303    1.0782   -1.9223 C.3       12 UNK        -0.0967 
     18 CA         29.7018    0.7053   -2.7962 C.3       5 UNK         0.0660 
     19 N          28.4765    0.4483   -2.0338 N.am      5 UNK        -0.4015 
     20 C          27.7090    1.3451   -1.4022 C.2       4 UNK         0.4946 
     21 O          27.9720    2.5448   -1.2973 O.2       4 UNK        -0.5353 
     22 CA         26.3866    0.7972   -0.8361 C.3       4 UNK         0.0277 
     23 CB         26.0238    1.4671    0.5015 C.3       4 UNK        -0.1981 
     24 N          25.2593    0.9433   -1.7661 N.am      4 UNK        -0.4209 
     25 C          25.1844    0.4538   -3.0117 C.2       3 UNK         0.4942 
     26 O          26.1088   -0.1238   -3.5954 O.2       3 UNK        -0.5208 
     27 CA         23.8385    0.6030   -3.7282 C.3       3 UNK         0.0250 
     28 CB         23.7729    1.8806   -4.5786 C.3       3 UNK        -0.1990 
     29 N          23.6964   -0.5753   -4.5707 N.am      3 UNK        -0.4232 
     30 C          22.5576   -1.2104   -4.8614 C.2       2 UNK         0.4993 
     31 O          21.4361   -0.7549   -4.6346 O.2       2 UNK        -0.5286 
     32 CA         22.6984   -2.6213   -5.4659 C.3       2 UNK         0.0209 
     33 CB         22.6549   -2.5657   -7.0017 C.3       2 UNK        -0.1931 
     34 N          23.9154   -3.3260   -5.0355 N.am      2 UNK        -0.4546 
     35 C          24.1979   -3.6717   -3.7681 C.2       1 UNK         0.5154 
     36 O          23.4328   -3.4652   -2.8251 O.2       1 UNK        -0.5181 
     37 C          29.4700    1.6817   -3.9706 C.2       5 UNK         0.5014 
     38 O          30.3339    2.5081   -4.2687 O.2       5 UNK        -0.5248 
     39 N          28.3102    1.5566   -4.6275 N.am      6 UNK        -0.4434 
     40 CA         27.9192    2.3448   -5.7960 C.3       6 UNK         0.0363 
     41 CB         27.2325    3.6466   -5.3384 C.3       6 UNK        -0.1936 
     42 C          27.0518    1.5120   -6.7538 C.2       6 UNK         0.5081 
     43 O          26.2530    2.0767   -7.5014 O.2       6 UNK        -0.5248 
     44 N          27.2058    0.1800   -6.7099 N.am      7 UNK        -0.4718 
     45 CA         26.4432   -0.7787   -7.5157 C.3       7 UNK         0.0273 
     46 CB         26.6746   -2.1899   -6.9531 C.3       7 UNK        -0.1935 
     47 C          26.7844   -0.7313   -9.0164 C.2       7 UNK         0.5018 
     48 O          25.9496   -1.1058   -9.8405 O.2       7 UNK        -0.5186 
     49 N          27.9944   -0.2661   -9.3362 N.am      8 UNK        -0.4240 
     50 CA         28.5169   -0.0264  -10.6734 C.3       8 UNK         0.0235 
     51 CB         29.0928   -1.3345  -11.2473 C.3       8 UNK        -0.2000 
     52 C          29.6038    1.0463  -10.5519 C.2       8 UNK         0.4941 
     53 O          30.0987    1.2888   -9.4474 O.2       8 UNK        -0.5273 
     54 N          30.0069    1.6324  -11.6879 N.am      9 UNK        -0.4262 
     55 CA         31.0964    2.6172  -11.7720 C.3       9 UNK         0.0264 
     56 CB         31.2081    3.1381  -13.2139 C.3       9 UNK        -0.1955 
     57 C          32.4558    2.0772  -11.2855 C.2       9 UNK         0.5031 
     58 O          33.2609    2.8430  -10.7535 O.2       9 UNK        -0.5390 
     59 N          32.6587    0.7593  -11.4266 N.am      10 UNK        -0.4204 
     60 CA         33.8048    0.0082  -10.9115 C.3       10 UNK         0.0237 
     61 CB         33.7306   -1.4352  -11.4368 C.3       10 UNK        -0.1985 
     62 C          33.9265    0.0111   -9.3748 C.2       10 UNK         0.4970 
     63 O          35.0256   -0.2295   -8.8734 O.2       10 UNK        -0.4914 
     64 N          32.8266    0.2797   -8.6551 N.am      11 UNK        -0.4285 
     65 CA         32.8178    0.4191   -7.1913 C.3       11 UNK         0.1007 
     66 C          33.4241    1.7582   -6.6786 C.2       11 UNK         0.5703 
     67 N          33.6667    2.7531   -7.5266 N.am      11 UNK        -0.7361 
     68 O          33.7034    1.8856   -5.4893 O.2       11 UNK        -0.4986 
     69 C69        31.4118    0.1761   -6.5785 C.3       12 UNK        -0.0947 
     70 S70        30.6037   -1.3706   -7.1129 S.3       12 UNK        -0.2240 
     71 C71        31.5893   -2.6436   -6.2639 C.3       12 UNK         0.0194 
     72 H72        26.8276   -7.5908   -6.3187 H         1 UNK         0.0906 
     73 H73        25.7407   -6.6495   -7.3430 H         1 UNK         0.0906 
     74 H74        27.2508   -5.9386   -6.7709 H         1 UNK         0.0906 
     75 H75        26.9518   -4.5186   -5.0725 H         1 UNK         0.3140 
     76 H76        25.3314   -5.1486   -2.7771 H         1 UNK         0.1085 
     77 H77        27.1841   -2.8568   -3.5655 H         1 UNK         0.0836 
     78 H78        26.0369   -2.5665   -2.2953 H         1 UNK         0.0836 
     79 H79        29.4856   -5.6140   -1.9495 H         1 UNK         0.0731 
     80 H80        28.5569   -5.4301   -3.4092 H         1 UNK         0.0731 
     81 H81        29.7291   -4.2523   -5.1103 H         1 UNK         0.1312 
     82 H82        32.7103   -1.3264   -4.1473 H         1 UNK         0.1406 
     83 H83        30.4555   -3.1977   -1.0161 H         1 UNK         0.1631 
     84 H84        33.2148   -0.7755   -1.8778 H         1 UNK         0.0717 
     85 H85        32.8101   -1.9801   -0.6812 H         1 UNK         0.0717 
     86 H86        30.7765    2.0532   -1.4565 H         1 UNK         0.0934 
     87 H87        31.8259    1.1773   -2.5391 H         1 UNK         0.0934 
     88 H88        29.9224   -0.2414   -3.2855 H         1 UNK         0.0739 
     89 H89        28.1327   -0.4997   -2.0918 H         1 UNK         0.3093 
     90 H90        26.5162   -0.2701   -0.6434 H         1 UNK         0.0818 
     91 H91        25.1515    0.9990    0.9580 H         1 UNK         0.0819 
     92 H92        26.8450    1.3825    1.2148 H         1 UNK         0.0819 
     93 H93        25.8092    2.5295    0.3778 H         1 UNK         0.0819 
     94 H94        24.4522    1.4265   -1.3987 H         1 UNK         0.3041 
     95 H95        23.0414    0.6164   -2.9815 H         1 UNK         0.0784 
     96 H96        22.7939    1.9912   -5.0451 H         1 UNK         0.0793 
     97 H97        23.9456    2.7690   -3.9702 H         1 UNK         0.0793 
     98 H98        24.5169    1.8727   -5.3735 H         1 UNK         0.0793 
     99 H99        24.5774   -1.0356   -4.7609 H         1 UNK         0.3024 
    100 H100       21.8411   -3.2033   -5.1196 H         1 UNK         0.1171 
    101 H101       23.5000   -2.0152   -7.4143 H         1 UNK         0.0786 
    102 H102       21.7458   -2.0711   -7.3472 H         1 UNK         0.0786 
    103 H103       22.6611   -3.5658   -7.4355 H         1 UNK         0.0786 
    104 H104       24.5758   -3.5820   -5.7533 H         1 UNK         0.2977 
    105 H105       27.6207    0.8865   -4.2913 H         1 UNK         0.3127 
    106 H106       28.8120    2.6111   -6.3660 H         1 UNK         0.0770 
    107 H107       26.3370    3.4430   -4.7520 H         1 UNK         0.0814 
    108 H108       26.9382    4.2614   -6.1899 H         1 UNK         0.0814 
    109 H109       27.9011    4.2496   -4.7239 H         1 UNK         0.0814 
    110 H110       27.9072   -0.2044   -6.0938 H         1 UNK         0.2983 
    111 H111       25.3851   -0.5294   -7.4138 H         1 UNK         0.0947 
    112 H112       26.0558   -2.9230   -7.4722 H         1 UNK         0.0806 
    113 H113       26.4275   -2.2333   -5.8936 H         1 UNK         0.0806 
    114 H114       27.7133   -2.5030   -7.0667 H         1 UNK         0.0806 
    115 H115       28.6091    0.0565   -8.5977 H         1 UNK         0.3000 
    116 H116       27.7183    0.3511  -11.3155 H         1 UNK         0.0850 
    117 H117       29.9039   -1.7213  -10.6282 H         1 UNK         0.0810 
    118 H118       28.3278   -2.1083  -11.3129 H         1 UNK         0.0810 
    119 H119       29.4869   -1.1877  -12.2534 H         1 UNK         0.0810 
    120 H120       29.5522    1.3831  -12.5553 H         1 UNK         0.3040 
    121 H121       30.8318    3.4557  -11.1242 H         1 UNK         0.0766 
    122 H122       30.2808    3.6100  -13.5392 H         1 UNK         0.0812 
    123 H123       31.4443    2.3383  -13.9169 H         1 UNK         0.0812 
    124 H124       31.9964    3.8879  -13.2971 H         1 UNK         0.0812 
    125 H125       31.9366    0.2215  -11.8821 H         1 UNK         0.3205 
    126 H126       34.7094    0.4739  -11.3080 H         1 UNK         0.0754 
    127 H127       34.5894   -2.0182  -11.1005 H         1 UNK         0.0769 
    128 H128       33.7313   -1.4629  -12.5267 H         1 UNK         0.0769 
    129 H129       32.8329   -1.9466  -11.0865 H         1 UNK         0.0769 
    130 H130       31.9517    0.4989   -9.1183 H         1 UNK         0.2981 
    131 H131       33.4746   -0.3549   -6.7925 H         1 UNK         0.0541 
    132 H132       34.0678    3.6084   -7.1768 H         1 UNK         0.3459 
    133 H133       33.4606    2.6594   -8.5123 H         1 UNK         0.3459 
    134 H134       30.7453    0.9985   -6.8422 H         1 UNK         0.0612 
    135 H135       31.4677    0.1770   -5.4908 H         1 UNK         0.0612 
    136 H136       31.4069   -3.5984   -6.7590 H         1 UNK         0.0624 
    137 H137       32.6534   -2.4457   -6.3922 H         1 UNK         0.0624 
@<TRIPOS>BOND
     1    1    2 1    
     2    1   72 1    
     3    1   73 1    
     4    1   74 1    
     5    2    3 2    
     6    2    4 am   BACKBONE|DICT|INTERRES
     7    4    5 1    
     8    4   75 1    
     9    5    6 1    
    10    5   35 1    
    11    5   76 1    
    12    6    7 1    
    13    6   77 1    
    14    6   78 1    
    15    7    8 1    
    16    8    9 1    
    17    8   79 1    
    18    8   80 1    
    19    9   10 ar   
    20    9   14 ar   
    21   10   11 ar   
    22   10   81 1    
    23   11   12 ar   
    24   11   71 1    
    25   12   13 ar   
    26   12   82 1    
    27   13   14 ar   
    28   13   15 1    
    29   14   83 1    
    30   15   16 1    
    31   15   84 1    
    32   15   85 1    
    33   16   17 1    
    34   17   18 1    
    35   17   86 1    
    36   17   87 1    
    37   18   19 1    
    38   18   37 1    
    39   18   88 1    
    40   19   20 am   BACKBONE|DICT|INTERRES
    41   19   89 1    
    42   20   21 2    
    43   20   22 1    
    44   22   23 1    
    45   22   24 1    
    46   22   90 1    
    47   23   91 1    
    48   23   92 1    
    49   23   93 1    
    50   24   25 am   BACKBONE|DICT|INTERRES
    51   24   94 1    
    52   25   26 2    
    53   25   27 1    
    54   27   28 1    
    55   27   29 1    
    56   27   95 1    
    57   28   96 1    
    58   28   97 1    
    59   28   98 1    
    60   29   30 am   BACKBONE|DICT|INTERRES
    61   29   99 1    
    62   30   31 2    
    63   30   32 1    
    64   32   33 1    
    65   32   34 1    
    66   32  100 1    
    67   33  101 1    
    68   33  102 1    
    69   33  103 1    
    70   34   35 am   BACKBONE|DICT|INTERRES
    71   34  104 1    
    72   35   36 2    
    73   37   38 2    
    74   37   39 am   BACKBONE|DICT|INTERRES
    75   39   40 1    
    76   39  105 1    
    77   40   41 1    
    78   40   42 1    
    79   40  106 1    
    80   41  107 1    
    81   41  108 1    
    82   41  109 1    
    83   42   43 2    
    84   42   44 am   BACKBONE|DICT|INTERRES
    85   44   45 1    
    86   44  110 1    
    87   45   46 1    
    88   45   47 1    
    89   45  111 1    
    90   46  112 1    
    91   46  113 1    
    92   46  114 1    
    93   47   48 2    
    94   47   49 am   BACKBONE|DICT|INTERRES
    95   49   50 1    
    96   49  115 1    
    97   50   51 1    
    98   50   52 1    
    99   50  116 1    
   100   51  117 1    
   101   51  118 1    
   102   51  119 1    
   103   52   53 2    
   104   52   54 am   BACKBONE|DICT|INTERRES
   105   54   55 1    
   106   54  120 1    
   107   55   56 1    
   108   55   57 1    
   109   55  121 1    
   110   56  122 1    
   111   56  123 1    
   112   56  124 1    
   113   57   58 2    
   114   57   59 am   BACKBONE|DICT|INTERRES
   115   59   60 1    
   116   59  125 1    
   117   60   61 1    
   118   60   62 1    
   119   60  126 1    
   120   61  127 1    
   121   61  128 1    
   122   61  129 1    
   123   62   63 2    
   124   62   64 am   BACKBONE|DICT|INTERRES
   125   64   65 1    
   126   64  130 1    
   127   65   66 1    
   128   65   69 1    
   129   65  131 1    
   130   66   67 am   BACKBONE|DICT|INTERRES
   131   66   68 2    
   132   67  132 1    
   133   67  133 1    
   134   69   70 1    
   135   69  134 1    
   136   69  135 1    
   137   70   71 1    
   138   71  136 1    
   139   71  137 1    
@<TRIPOS>SUBSTRUCTURE
     1 UNK         1 GROUP             0       ****    0 ROOT    
