@<TRIPOS>MOLECULE
3R137
137   139    1
SMALL
USER_CHARGES


@<TRIPOS>ATOM
      1 CA         22.8706   -2.5398    1.1952 C.3       0 UNK        -0.2020 
      2 C          24.1406   -3.2765    1.5931 C.2       0 UNK         0.4855 
      3 O          24.4559   -3.3599    2.7800 O.2       0 UNK        -0.5197 
      4 N          24.8771   -3.8072    0.6087 N.am      1 UNK        -0.4892 
      5 CA         26.1313   -4.5498    0.7994 C.3       1 UNK         0.0835 
      6 C6         26.4044   -5.4993   -0.3941 C.3       12 UNK        -0.0855 
      7 S7         26.6372   -4.6354   -1.9890 S.3       12 UNK        -0.2931 
      8 C8         28.3944   -4.9755   -2.3037 C.3       12 UNK         0.0378 
      9 C9         28.8503   -4.3855   -3.6289 C.ar      12 UNK        -0.0802 
     10 C10        29.7472   -3.3138   -3.6550 C.ar      12 UNK        -0.0944 
     11 C11        30.2054   -2.7980   -4.8718 C.ar      12 UNK        -0.0787 
     12 C12        29.7768   -3.3831   -6.0664 C.ar      12 UNK        -0.0862 
     13 C13        28.8548   -4.4345   -6.0556 C.ar      12 UNK        -0.0733 
     14 C14        28.3987   -4.9341   -4.8328 C.ar      12 UNK        -0.0832 
     15 C15        28.3620   -5.0453   -7.3599 C.3       12 UNK         0.0240 
     16 S16        26.7877   -4.3076   -7.9084 S.3       12 UNK        -0.2522 
     17 C17        27.3356   -2.6619   -8.4787 C.3       12 UNK        -0.0967 
     18 CA         26.5113   -1.4788   -7.9066 C.3       5 UNK         0.0660 
     19 N          26.3125   -1.5646   -6.4550 N.am      5 UNK        -0.4015 
     20 C          25.1919   -1.1801   -5.8302 C.2       4 UNK         0.4946 
     21 O          24.2363   -0.6533   -6.4018 O.2       4 UNK        -0.5353 
     22 CA         25.1149   -1.4129   -4.3117 C.3       4 UNK         0.0277 
     23 CB         24.5035   -2.7919   -4.0229 C.3       4 UNK        -0.1981 
     24 N          26.3941   -1.2669   -3.6025 N.am      4 UNK        -0.4209 
     25 C          27.0746   -0.1128   -3.5274 C.2       3 UNK         0.4942 
     26 O          26.7254    0.9113   -4.1148 O.2       3 UNK        -0.5208 
     27 CA         28.3105   -0.0875   -2.6155 C.3       3 UNK         0.0250 
     28 CB         28.9554    1.3119   -2.5134 C.3       3 UNK        -0.1990 
     29 N          27.9536   -0.5696   -1.2813 N.am      3 UNK        -0.4232 
     30 C          28.8257   -1.0166   -0.3671 C.2       2 UNK         0.4993 
     31 O          30.0275   -1.1761   -0.5815 O.2       2 UNK        -0.5286 
     32 CA         28.2590   -1.3349    1.0231 C.3       2 UNK         0.0209 
     33 CB         27.7345   -0.0656    1.7183 C.3       2 UNK        -0.1931 
     34 N          27.1865   -2.3230    0.9255 N.am      2 UNK        -0.4546 
     35 C          27.3493   -3.6426    1.0902 C.2       1 UNK         0.5154 
     36 O          28.4130   -4.1594    1.4367 O.2       1 UNK        -0.5181 
     37 C          27.1286   -0.1322   -8.3447 C.2       5 UNK         0.5014 
     38 O          27.4718   -0.0052   -9.5212 O.2       5 UNK        -0.5248 
     39 N          27.2787    0.8437   -7.4325 N.am      6 UNK        -0.4434 
     40 CA         27.9895    2.1183   -7.6356 C.3       6 UNK         0.0363 
     41 CB         27.9984    2.9088   -6.3192 C.3       6 UNK        -0.1936 
     42 C          27.4861    3.0132   -8.7861 C.2       6 UNK         0.5081 
     43 O          28.1933    3.9408   -9.1804 O.2       6 UNK        -0.5248 
     44 N          26.2914    2.7265   -9.3188 N.am      7 UNK        -0.4718 
     45 CA         25.7584    3.3315  -10.5409 C.3       7 UNK         0.0273 
     46 CB         24.2694    2.9703  -10.6674 C.3       7 UNK        -0.1935 
     47 C          26.5225    2.9173  -11.8161 C.2       7 UNK         0.5018 
     48 O          26.4355    3.6348  -12.8138 O.2       7 UNK        -0.5186 
     49 N          27.2368    1.7826  -11.7739 N.am      8 UNK        -0.4240 
     50 CA         28.0112    1.2382  -12.8912 C.3       8 UNK         0.0235 
     51 CB         27.2577    0.0429  -13.4995 C.3       8 UNK        -0.2000 
     52 C          29.4325    0.8268  -12.4772 C.2       8 UNK         0.4941 
     53 O          30.3665    1.0602  -13.2462 O.2       8 UNK        -0.5273 
     54 N          29.5839    0.2086  -11.2986 N.am      9 UNK        -0.4262 
     55 CA         30.8642   -0.2630  -10.7706 C.3       9 UNK         0.0264 
     56 CB         30.6059   -1.3735   -9.7402 C.3       9 UNK        -0.1955 
     57 C          31.6542    0.8775  -10.1163 C.2       9 UNK         0.5031 
     58 O          31.0620    1.7833   -9.5256 O.2       9 UNK        -0.5390 
     59 N          32.9867    0.7758  -10.1673 N.am      10 UNK        -0.4204 
     60 CA         33.9202    1.6959   -9.5158 C.3       10 UNK         0.0237 
     61 CB         35.2482    1.6961  -10.2977 C.3       10 UNK        -0.1985 
     62 C          34.1038    1.3387   -8.0277 C.2       10 UNK         0.4970 
     63 O          35.2107    0.9900   -7.6118 O.2       10 UNK        -0.4914 
     64 N          33.0101    1.4052   -7.2580 N.am      11 UNK        -0.4285 
     65 CA         32.9958    1.1982   -5.8020 C.3       11 UNK         0.1007 
     66 C          33.8284    2.2670   -5.0397 C.2       11 UNK         0.5703 
     67 N          34.4752    1.8863   -3.9462 N.am      11 UNK        -0.7361 
     68 O          33.8579    3.4410   -5.4056 O.2       11 UNK        -0.4986 
     69 C69        31.5534    1.1433   -5.2363 C.3       12 UNK        -0.0947 
     70 S70        30.5527   -0.2317   -5.8915 S.3       12 UNK        -0.2240 
     71 C71        31.1774   -1.6245   -4.8927 C.3       12 UNK         0.0194 
     72 H72        22.0035   -3.0127    1.6555 H         1 UNK         0.0906 
     73 H73        22.9144   -1.5053    1.5348 H         1 UNK         0.0906 
     74 H74        22.7210   -2.5364    0.1156 H         1 UNK         0.0906 
     75 H75        24.5735   -3.7205   -0.3516 H         1 UNK         0.3140 
     76 H76        26.0115   -5.1763    1.6866 H         1 UNK         0.1085 
     77 H77        27.2681   -6.1332   -0.1834 H         1 UNK         0.0836 
     78 H78        25.5668   -6.1894   -0.5080 H         1 UNK         0.0836 
     79 H79        28.9902   -4.5796   -1.4793 H         1 UNK         0.0731 
     80 H80        28.5594   -6.0539   -2.3168 H         1 UNK         0.0731 
     81 H81        30.0974   -2.8878   -2.7244 H         1 UNK         0.1312 
     82 H82        30.1599   -3.0058   -7.0039 H         1 UNK         0.1406 
     83 H83        27.6954   -5.7561   -4.8157 H         1 UNK         0.1631 
     84 H84        29.1121   -4.9353   -8.1448 H         1 UNK         0.0717 
     85 H85        28.2180   -6.1189   -7.2295 H         1 UNK         0.0717 
     86 H86        28.3889   -2.5312   -8.2461 H         1 UNK         0.0934 
     87 H87        27.2796   -2.6629   -9.5693 H         1 UNK         0.0934 
     88 H88        25.5334   -1.5262   -8.3905 H         1 UNK         0.0739 
     89 H89        27.0504   -2.0010   -5.9206 H         1 UNK         0.3093 
     90 H90        24.4359   -0.6580   -3.9091 H         1 UNK         0.0818 
     91 H91        24.3304   -2.9353   -2.9567 H         1 UNK         0.0819 
     92 H92        23.5391   -2.9034   -4.5206 H         1 UNK         0.0819 
     93 H93        25.1452   -3.5996   -4.3778 H         1 UNK         0.0819 
     94 H94        26.7418   -2.0793   -3.1105 H         1 UNK         0.3041 
     95 H95        29.0406   -0.7621   -3.0580 H         1 UNK         0.0784 
     96 H96        29.2338    1.6880   -3.4960 H         1 UNK         0.0793 
     97 H97        28.2744    2.0365   -2.0659 H         1 UNK         0.0793 
     98 H98        29.8657    1.2925   -1.9144 H         1 UNK         0.0793 
     99 H99        26.9793   -0.4791   -1.0304 H         1 UNK         0.3024 
    100 H100       29.0778   -1.7302    1.6295 H         1 UNK         0.1171 
    101 H101       27.4147   -0.2815    2.7380 H         1 UNK         0.0786 
    102 H102       28.5142    0.6951    1.7795 H         1 UNK         0.0786 
    103 H103       26.8878    0.3761    1.1920 H         1 UNK         0.0786 
    104 H104       26.2720   -1.9983    0.6492 H         1 UNK         0.2977 
    105 H105       26.9516    0.6705   -6.4904 H         1 UNK         0.3127 
    106 H106       29.0224    1.8625   -7.8762 H         1 UNK         0.0770 
    107 H107       26.9880    3.1271   -5.9720 H         1 UNK         0.0814 
    108 H108       28.5220    3.8594   -6.4300 H         1 UNK         0.0814 
    109 H109       28.5112    2.3536   -5.5371 H         1 UNK         0.0814 
    110 H110       25.7736    1.9535   -8.9266 H         1 UNK         0.2983 
    111 H111       25.8434    4.4166  -10.4488 H         1 UNK         0.0947 
    112 H112       23.8300    3.4313  -11.5532 H         1 UNK         0.0806 
    113 H113       23.7004    3.3213   -9.8063 H         1 UNK         0.0806 
    114 H114       24.1210    1.8930  -10.7536 H         1 UNK         0.0806 
    115 H115       27.2601    1.2575  -10.9035 H         1 UNK         0.3000 
    116 H116       28.1243    1.9969  -13.6688 H         1 UNK         0.0850 
    117 H117       27.8168   -0.3917  -14.3293 H         1 UNK         0.0810 
    118 H118       26.2850    0.3458  -13.8877 H         1 UNK         0.0810 
    119 H119       27.0938   -0.7465  -12.7645 H         1 UNK         0.0810 
    120 H120       28.7795    0.0899  -10.6853 H         1 UNK         0.3040 
    121 H121       31.4505   -0.6808  -11.5922 H         1 UNK         0.0766 
    122 H122       31.5421   -1.8026   -9.3810 H         1 UNK         0.0812 
    123 H123       30.0191   -2.1861  -10.1685 H         1 UNK         0.0812 
    124 H124       30.0733   -0.9891   -8.8700 H         1 UNK         0.0812 
    125 H125       33.3957   -0.0239  -10.6297 H         1 UNK         0.3205 
    126 H126       33.5146    2.7093   -9.5572 H         1 UNK         0.0754 
    127 H127       35.9616    2.3930   -9.8554 H         1 UNK         0.0769 
    128 H128       35.0981    2.0038  -11.3328 H         1 UNK         0.0769 
    129 H129       35.7158    0.7106  -10.3052 H         1 UNK         0.0769 
    130 H130       32.1352    1.6784   -7.6900 H         1 UNK         0.2981 
    131 H131       33.4649    0.2296   -5.6189 H         1 UNK         0.0541 
    132 H132       35.0076    2.5696   -3.4308 H         1 UNK         0.3459 
    133 H133       34.4505    0.9296   -3.6298 H         1 UNK         0.3459 
    134 H134       31.0284    2.0742   -5.4578 H         1 UNK         0.0612 
    135 H135       31.5686    1.0605   -4.1480 H         1 UNK         0.0612 
    136 H136       31.3737   -1.2801   -3.8761 H         1 UNK         0.0624 
    137 H137       32.1334   -1.9558   -5.2998 H         1 UNK         0.0624 
@<TRIPOS>BOND
     1    1    2 1    
     2    1   72 1    
     3    1   73 1    
     4    1   74 1    
     5    2    3 2    
     6    2    4 am   BACKBONE|DICT|INTERRES
     7    4    5 1    
     8    4   75 1    
     9    5    6 1    
    10    5   35 1    
    11    5   76 1    
    12    6    7 1    
    13    6   77 1    
    14    6   78 1    
    15    7    8 1    
    16    8    9 1    
    17    8   79 1    
    18    8   80 1    
    19    9   10 ar   
    20    9   14 ar   
    21   10   11 ar   
    22   10   81 1    
    23   11   12 ar   
    24   11   71 1    
    25   12   13 ar   
    26   12   82 1    
    27   13   14 ar   
    28   13   15 1    
    29   14   83 1    
    30   15   16 1    
    31   15   84 1    
    32   15   85 1    
    33   16   17 1    
    34   17   18 1    
    35   17   86 1    
    36   17   87 1    
    37   18   19 1    
    38   18   37 1    
    39   18   88 1    
    40   19   20 am   BACKBONE|DICT|INTERRES
    41   19   89 1    
    42   20   21 2    
    43   20   22 1    
    44   22   23 1    
    45   22   24 1    
    46   22   90 1    
    47   23   91 1    
    48   23   92 1    
    49   23   93 1    
    50   24   25 am   BACKBONE|DICT|INTERRES
    51   24   94 1    
    52   25   26 2    
    53   25   27 1    
    54   27   28 1    
    55   27   29 1    
    56   27   95 1    
    57   28   96 1    
    58   28   97 1    
    59   28   98 1    
    60   29   30 am   BACKBONE|DICT|INTERRES
    61   29   99 1    
    62   30   31 2    
    63   30   32 1    
    64   32   33 1    
    65   32   34 1    
    66   32  100 1    
    67   33  101 1    
    68   33  102 1    
    69   33  103 1    
    70   34   35 am   BACKBONE|DICT|INTERRES
    71   34  104 1    
    72   35   36 2    
    73   37   38 2    
    74   37   39 am   BACKBONE|DICT|INTERRES
    75   39   40 1    
    76   39  105 1    
    77   40   41 1    
    78   40   42 1    
    79   40  106 1    
    80   41  107 1    
    81   41  108 1    
    82   41  109 1    
    83   42   43 2    
    84   42   44 am   BACKBONE|DICT|INTERRES
    85   44   45 1    
    86   44  110 1    
    87   45   46 1    
    88   45   47 1    
    89   45  111 1    
    90   46  112 1    
    91   46  113 1    
    92   46  114 1    
    93   47   48 2    
    94   47   49 am   BACKBONE|DICT|INTERRES
    95   49   50 1    
    96   49  115 1    
    97   50   51 1    
    98   50   52 1    
    99   50  116 1    
   100   51  117 1    
   101   51  118 1    
   102   51  119 1    
   103   52   53 2    
   104   52   54 am   BACKBONE|DICT|INTERRES
   105   54   55 1    
   106   54  120 1    
   107   55   56 1    
   108   55   57 1    
   109   55  121 1    
   110   56  122 1    
   111   56  123 1    
   112   56  124 1    
   113   57   58 2    
   114   57   59 am   BACKBONE|DICT|INTERRES
   115   59   60 1    
   116   59  125 1    
   117   60   61 1    
   118   60   62 1    
   119   60  126 1    
   120   61  127 1    
   121   61  128 1    
   122   61  129 1    
   123   62   63 2    
   124   62   64 am   BACKBONE|DICT|INTERRES
   125   64   65 1    
   126   64  130 1    
   127   65   66 1    
   128   65   69 1    
   129   65  131 1    
   130   66   67 am   BACKBONE|DICT|INTERRES
   131   66   68 2    
   132   67  132 1    
   133   67  133 1    
   134   69   70 1    
   135   69  134 1    
   136   69  135 1    
   137   70   71 1    
   138   71  136 1    
   139   71  137 1    
@<TRIPOS>SUBSTRUCTURE
     1 UNK         1 GROUP             0       ****    0 ROOT    
