@<TRIPOS>MOLECULE
3R137
137   139    1
SMALL
USER_CHARGES


@<TRIPOS>ATOM
      1 CA         26.4014   -2.2592    4.1047 C.3       0 UNK        -0.2020 
      2 C          26.4214   -1.4531    2.8144 C.2       0 UNK         0.4855 
      3 O          26.1361   -0.2551    2.8364 O.2       0 UNK        -0.5197 
      4 N          26.7660   -2.0972    1.6927 N.am      1 UNK        -0.4892 
      5 CA         26.7936   -1.4951    0.3551 C.3       1 UNK         0.0835 
      6 C6         27.5543   -2.3851   -0.6616 C.3       12 UNK        -0.0855 
      7 S7         29.2990   -2.6403   -0.1891 S.3       12 UNK        -0.2931 
      8 C8         30.1587   -1.4602   -1.2872 C.3       12 UNK         0.0378 
      9 C9         30.6154   -2.0371   -2.6298 C.ar      12 UNK        -0.0802 
     10 C10        31.7672   -1.5110   -3.2241 C.ar      12 UNK        -0.0944 
     11 C11        32.2388   -2.0099   -4.4409 C.ar      12 UNK        -0.0787 
     12 C12        31.5392   -3.0341   -5.0845 C.ar      12 UNK        -0.0862 
     13 C13        30.3876   -3.5744   -4.5060 C.ar      12 UNK        -0.0733 
     14 C14        29.9270   -3.0682   -3.2853 C.ar      12 UNK        -0.0832 
     15 C15        29.6774   -4.7510   -5.1605 C.3       12 UNK         0.0240 
     16 S16        28.1312   -4.2640   -5.9829 S.3       12 UNK        -0.2522 
     17 C17        28.7169   -3.6530   -7.6056 C.3       12 UNK        -0.0967 
     18 CA         27.9802   -2.3783   -8.0933 C.3       5 UNK         0.0660 
     19 N          26.5244   -2.5000   -7.9695 N.am      5 UNK        -0.4015 
     20 C          25.6235   -1.6353   -8.4531 C.2       4 UNK         0.4946 
     21 O          25.9123   -0.6482   -9.1268 O.2       4 UNK        -0.5353 
     22 CA         24.1519   -1.8831   -8.0747 C.3       4 UNK         0.0277 
     23 CB         23.4965   -2.8519   -9.0715 C.3       4 UNK        -0.1981 
     24 N          23.9581   -2.3770   -6.7045 N.am      4 UNK        -0.4209 
     25 C          24.3937   -1.7597   -5.5972 C.2       3 UNK         0.4942 
     26 O          25.0511   -0.7160   -5.6115 O.2       3 UNK        -0.5208 
     27 CA         24.0928   -2.4560   -4.2611 C.3       3 UNK         0.0250 
     28 CB         24.9991   -3.6837   -4.0704 C.3       3 UNK        -0.1990 
     29 N          24.3219   -1.5456   -3.1421 N.am      3 UNK        -0.4232 
     30 C          23.4615   -0.6244   -2.6927 C.2       2 UNK         0.4993 
     31 O          22.3139   -0.4972   -3.1240 O.2       2 UNK        -0.5286 
     32 CA         23.9763    0.3290   -1.5910 C.3       2 UNK         0.0209 
     33 CB         22.8806    0.6834   -0.5620 C.3       2 UNK        -0.1931 
     34 N          25.2089   -0.1234   -0.9189 N.am      2 UNK        -0.4546 
     35 C          25.3638   -1.2154   -0.1524 C.2       1 UNK         0.5154 
     36 O          24.4589   -2.0132    0.1058 O.2       1 UNK        -0.5181 
     37 C          28.5345   -1.1072   -7.4194 C.2       5 UNK         0.5014 
     38 O          29.3898   -0.4424   -8.0050 O.2       5 UNK        -0.5248 
     39 N          28.0190   -0.7744   -6.2284 N.am      6 UNK        -0.4434 
     40 CA         28.3786    0.4309   -5.4835 C.3       6 UNK         0.0363 
     41 CB         27.9185    0.2947   -4.0233 C.3       6 UNK        -0.1936 
     42 C          27.7805    1.6892   -6.1286 C.2       6 UNK         0.5081 
     43 O          28.4745    2.6990   -6.2369 O.2       6 UNK        -0.5248 
     44 N          26.5175    1.5966   -6.5703 N.am      7 UNK        -0.4718 
     45 CA         25.7850    2.6676   -7.2520 C.3       7 UNK         0.0273 
     46 CB         24.3128    2.2593   -7.4162 C.3       7 UNK        -0.1935 
     47 C          26.4023    3.0511   -8.6080 C.2       7 UNK         0.5018 
     48 O          26.5198    4.2408   -8.9034 O.2       7 UNK        -0.5186 
     49 N          26.8128    2.0440   -9.3917 N.am      8 UNK        -0.4240 
     50 CA         27.5309    2.2148  -10.6584 C.3       8 UNK         0.0235 
     51 CB         27.4138    0.9192  -11.4790 C.3       8 UNK        -0.2000 
     52 C          29.0140    2.5878  -10.4775 C.2       8 UNK         0.4941 
     53 O          29.6408    3.0044  -11.4525 O.2       8 UNK        -0.5273 
     54 N          29.5490    2.4076   -9.2596 N.am      9 UNK        -0.4262 
     55 CA         30.9554    2.5485   -8.8680 C.3       9 UNK         0.0264 
     56 CB         31.4148    4.0189   -8.9565 C.3       9 UNK        -0.1955 
     57 C          31.8685    1.5768   -9.6390 C.2       9 UNK         0.5031 
     58 O          32.9397    1.9653  -10.1121 O.2       9 UNK        -0.5390 
     59 N          31.4355    0.3129   -9.7392 N.am      10 UNK        -0.4204 
     60 CA         32.1420   -0.7905  -10.3949 C.3       10 UNK         0.0237 
     61 CB         31.1124   -1.8582  -10.8106 C.3       10 UNK        -0.1985 
     62 C          33.2491   -1.3518   -9.4819 C.2       10 UNK         0.4970 
     63 O          33.2402   -2.5389   -9.1499 O.2       10 UNK        -0.4914 
     64 N          34.1542   -0.4627   -9.0638 N.am      11 UNK        -0.4285 
     65 CA         35.1767   -0.6889   -8.0333 C.3       11 UNK         0.1007 
     66 C          36.6299   -0.5267   -8.5623 C.2       11 UNK         0.5703 
     67 N          36.8482   -0.3027   -9.8532 N.am      11 UNK        -0.7361 
     68 O          37.5824   -0.6259   -7.7922 O.2       11 UNK        -0.4986 
     69 C69        34.9134    0.1965   -6.7819 C.3       12 UNK        -0.0947 
     70 S70        33.2402   -0.0237   -6.0822 S.3       12 UNK        -0.2240 
     71 C71        33.5319   -1.4763   -5.0341 C.3       12 UNK         0.0194 
     72 H72        27.0914   -1.8263    4.8285 H         1 UNK         0.0906 
     73 H73        25.4016   -2.2483    4.5379 H         1 UNK         0.0906 
     74 H74        26.6889   -3.2977    3.9417 H         1 UNK         0.0906 
     75 H75        26.9850   -3.0825    1.7296 H         1 UNK         0.3140 
     76 H76        27.3172   -0.5394    0.4356 H         1 UNK         0.1085 
     77 H77        27.0782   -3.3646   -0.7437 H         1 UNK         0.0836 
     78 H78        27.5172   -1.9515   -1.6621 H         1 UNK         0.0836 
     79 H79        29.5317   -0.5850   -1.4599 H         1 UNK         0.0731 
     80 H80        31.0306   -1.0983   -0.7398 H         1 UNK         0.0731 
     81 H81        32.3125   -0.7177   -2.7308 H         1 UNK         0.1312 
     82 H82        31.9087   -3.4271   -6.0222 H         1 UNK         0.1406 
     83 H83        29.0393   -3.4983   -2.8447 H         1 UNK         0.1631 
     84 H84        29.4415   -5.4919   -4.3952 H         1 UNK         0.0717 
     85 H85        30.3298   -5.2564   -5.8743 H         1 UNK         0.0717 
     86 H86        29.7968   -3.4914   -7.5820 H         1 UNK         0.0934 
     87 H87        28.5620   -4.4551   -8.3288 H         1 UNK         0.0934 
     88 H88        28.1900   -2.2701   -9.1597 H         1 UNK         0.0739 
     89 H89        26.1979   -3.2775   -7.4144 H         1 UNK         0.3093 
     90 H90        23.6341   -0.9250   -8.1460 H         1 UNK         0.0818 
     91 H91        22.4266   -2.9496   -8.8862 H         1 UNK         0.0819 
     92 H92        23.6131   -2.4946  -10.0959 H         1 UNK         0.0819 
     93 H93        23.9393   -3.8474   -9.0214 H         1 UNK         0.0819 
     94 H94        23.4334   -3.2345   -6.6051 H         1 UNK         0.3041 
     95 H95        23.0486   -2.7761   -4.2608 H         1 UNK         0.0784 
     96 H96        24.8802   -4.4012   -4.8832 H         1 UNK         0.0793 
     97 H97        26.0525   -3.4046   -4.0308 H         1 UNK         0.0793 
     98 H98        24.7613   -4.2076   -3.1442 H         1 UNK         0.0793 
     99 H99        25.2501   -1.5435   -2.7521 H         1 UNK         0.3024 
    100 H100       24.2400    1.2510   -2.1124 H         1 UNK         0.1171 
    101 H101       22.0322    1.1703   -1.0446 H         1 UNK         0.0786 
    102 H102       23.2558    1.3699    0.1970 H         1 UNK         0.0786 
    103 H103       22.4978   -0.2022   -0.0542 H         1 UNK         0.0786 
    104 H104       26.0154    0.4676   -1.0703 H         1 UNK         0.2977 
    105 H105       27.2684   -1.3352   -5.8508 H         1 UNK         0.3127 
    106 H106       29.4674    0.5239   -5.4918 H         1 UNK         0.0770 
    107 H107       26.8321    0.2883   -3.9345 H         1 UNK         0.0814 
    108 H108       28.2900    1.1256   -3.4224 H         1 UNK         0.0814 
    109 H109       28.2959   -0.6244   -3.5801 H         1 UNK         0.0814 
    110 H110       26.0102    0.7323   -6.3931 H         1 UNK         0.2983 
    111 H111       25.8241    3.5509   -6.6108 H         1 UNK         0.0947 
    112 H112       23.7306    3.0699   -7.8562 H         1 UNK         0.0806 
    113 H113       23.8579    2.0150   -6.4559 H         1 UNK         0.0806 
    114 H114       24.2065    1.3917   -8.0671 H         1 UNK         0.0806 
    115 H115       26.6075    1.0859   -9.1121 H         1 UNK         0.3000 
    116 H116       27.0555    3.0214  -11.2206 H         1 UNK         0.0850 
    117 H117       27.8954    1.0252  -12.4520 H         1 UNK         0.0810 
    118 H118       26.3714    0.6565  -11.6599 H         1 UNK         0.0810 
    119 H119       27.8873    0.0781  -10.9701 H         1 UNK         0.0810 
    120 H120       28.9386    2.0550   -8.5339 H         1 UNK         0.3040 
    121 H121       31.0094    2.2483   -7.8200 H         1 UNK         0.0766 
    122 H122       32.4202    4.1370   -8.5505 H         1 UNK         0.0812 
    123 H123       30.7558    4.6735   -8.3861 H         1 UNK         0.0812 
    124 H124       31.4368    4.3771   -9.9860 H         1 UNK         0.0812 
    125 H125       30.5985    0.0597   -9.2118 H         1 UNK         0.3205 
    126 H126       32.6215   -0.4148  -11.3011 H         1 UNK         0.0754 
    127 H127       31.5919   -2.6731  -11.3544 H         1 UNK         0.0769 
    128 H128       30.3471   -1.4383  -11.4639 H         1 UNK         0.0769 
    129 H129       30.6121   -2.2925   -9.9445 H         1 UNK         0.0769 
    130 H130       34.0583    0.4929   -9.3938 H         1 UNK         0.2981 
    131 H131       35.1273   -1.7291   -7.7090 H         1 UNK         0.0541 
    132 H132       36.0782   -0.2414  -10.4999 H         1 UNK         0.3459 
    133 H133       37.7954   -0.2069  -10.1843 H         1 UNK         0.3459 
    134 H134       35.0291    1.2511   -7.0379 H         1 UNK         0.0612 
    135 H135       35.6464   -0.0073   -5.9992 H         1 UNK         0.0612 
    136 H136       34.0173   -2.2565   -5.6221 H         1 UNK         0.0624 
    137 H137       34.2292   -1.2120   -4.2376 H         1 UNK         0.0624 
@<TRIPOS>BOND
     1    1    2 1    
     2    1   72 1    
     3    1   73 1    
     4    1   74 1    
     5    2    3 2    
     6    2    4 am   BACKBONE|DICT|INTERRES
     7    4    5 1    
     8    4   75 1    
     9    5    6 1    
    10    5   35 1    
    11    5   76 1    
    12    6    7 1    
    13    6   77 1    
    14    6   78 1    
    15    7    8 1    
    16    8    9 1    
    17    8   79 1    
    18    8   80 1    
    19    9   10 ar   
    20    9   14 ar   
    21   10   11 ar   
    22   10   81 1    
    23   11   12 ar   
    24   11   71 1    
    25   12   13 ar   
    26   12   82 1    
    27   13   14 ar   
    28   13   15 1    
    29   14   83 1    
    30   15   16 1    
    31   15   84 1    
    32   15   85 1    
    33   16   17 1    
    34   17   18 1    
    35   17   86 1    
    36   17   87 1    
    37   18   19 1    
    38   18   37 1    
    39   18   88 1    
    40   19   20 am   BACKBONE|DICT|INTERRES
    41   19   89 1    
    42   20   21 2    
    43   20   22 1    
    44   22   23 1    
    45   22   24 1    
    46   22   90 1    
    47   23   91 1    
    48   23   92 1    
    49   23   93 1    
    50   24   25 am   BACKBONE|DICT|INTERRES
    51   24   94 1    
    52   25   26 2    
    53   25   27 1    
    54   27   28 1    
    55   27   29 1    
    56   27   95 1    
    57   28   96 1    
    58   28   97 1    
    59   28   98 1    
    60   29   30 am   BACKBONE|DICT|INTERRES
    61   29   99 1    
    62   30   31 2    
    63   30   32 1    
    64   32   33 1    
    65   32   34 1    
    66   32  100 1    
    67   33  101 1    
    68   33  102 1    
    69   33  103 1    
    70   34   35 am   BACKBONE|DICT|INTERRES
    71   34  104 1    
    72   35   36 2    
    73   37   38 2    
    74   37   39 am   BACKBONE|DICT|INTERRES
    75   39   40 1    
    76   39  105 1    
    77   40   41 1    
    78   40   42 1    
    79   40  106 1    
    80   41  107 1    
    81   41  108 1    
    82   41  109 1    
    83   42   43 2    
    84   42   44 am   BACKBONE|DICT|INTERRES
    85   44   45 1    
    86   44  110 1    
    87   45   46 1    
    88   45   47 1    
    89   45  111 1    
    90   46  112 1    
    91   46  113 1    
    92   46  114 1    
    93   47   48 2    
    94   47   49 am   BACKBONE|DICT|INTERRES
    95   49   50 1    
    96   49  115 1    
    97   50   51 1    
    98   50   52 1    
    99   50  116 1    
   100   51  117 1    
   101   51  118 1    
   102   51  119 1    
   103   52   53 2    
   104   52   54 am   BACKBONE|DICT|INTERRES
   105   54   55 1    
   106   54  120 1    
   107   55   56 1    
   108   55   57 1    
   109   55  121 1    
   110   56  122 1    
   111   56  123 1    
   112   56  124 1    
   113   57   58 2    
   114   57   59 am   BACKBONE|DICT|INTERRES
   115   59   60 1    
   116   59  125 1    
   117   60   61 1    
   118   60   62 1    
   119   60  126 1    
   120   61  127 1    
   121   61  128 1    
   122   61  129 1    
   123   62   63 2    
   124   62   64 am   BACKBONE|DICT|INTERRES
   125   64   65 1    
   126   64  130 1    
   127   65   66 1    
   128   65   69 1    
   129   65  131 1    
   130   66   67 am   BACKBONE|DICT|INTERRES
   131   66   68 2    
   132   67  132 1    
   133   67  133 1    
   134   69   70 1    
   135   69  134 1    
   136   69  135 1    
   137   70   71 1    
   138   71  136 1    
   139   71  137 1    
@<TRIPOS>SUBSTRUCTURE
     1 UNK         1 GROUP             0       ****    0 ROOT    
