@<TRIPOS>MOLECULE
3R137
137   139    1
SMALL
USER_CHARGES


@<TRIPOS>ATOM
      1 CA         26.9311   -2.0308    2.6244 C.3       0 UNK        -0.2020 
      2 C          27.1296   -1.9880    1.1175 C.2       0 UNK         0.4855 
      3 O          27.0661   -0.9154    0.5187 O.2       0 UNK        -0.5197 
      4 N          27.3466   -3.1486    0.4877 N.am      1 UNK        -0.4892 
      5 CA         27.6382   -3.3112   -0.9462 C.3       1 UNK         0.0835 
      6 C6         28.4914   -4.5797   -1.2200 C.3       12 UNK        -0.0855 
      7 S7         29.9887   -4.6656   -0.1740 S.3       12 UNK        -0.2931 
      8 C8         31.3223   -4.2583   -1.3531 C.3       12 UNK         0.0378 
      9 C9         31.2483   -2.8523   -1.9488 C.ar      12 UNK        -0.0802 
     10 C10        31.6695   -2.6524   -3.2661 C.ar      12 UNK        -0.0944 
     11 C11        31.6466   -1.3778   -3.8487 C.ar      12 UNK        -0.0787 
     12 C12        31.2010   -0.2965   -3.0823 C.ar      12 UNK        -0.0862 
     13 C13        30.7449   -0.4787   -1.7720 C.ar      12 UNK        -0.0733 
     14 C14        30.8024   -1.7546   -1.2041 C.ar      12 UNK        -0.0832 
     15 C15        30.1957    0.6856   -0.9477 C.3       12 UNK         0.0240 
     16 S16        29.0896    1.8168   -1.8670 S.3       12 UNK        -0.2522 
     17 C17        27.8384    0.6879   -2.5724 C.3       12 UNK        -0.0967 
     18 CA         27.9768    0.5893   -4.1143 C.3       5 UNK         0.0660 
     19 N          27.6415   -0.7392   -4.6271 N.am      5 UNK        -0.4015 
     20 C          28.0859   -1.2262   -5.7953 C.2       4 UNK         0.4946 
     21 O          28.8395   -0.6165   -6.5519 O.2       4 UNK        -0.5353 
     22 CA         27.5695   -2.6133   -6.2090 C.3       4 UNK         0.0277 
     23 CB         28.4336   -3.7204   -5.5854 C.3       4 UNK        -0.1981 
     24 N          26.1632   -2.8134   -5.8489 N.am      4 UNK        -0.4209 
     25 C          25.1489   -2.1494   -6.4251 C.2       3 UNK         0.4942 
     26 O          25.2967   -1.3373   -7.3369 O.2       3 UNK        -0.5208 
     27 CA         23.7349   -2.3890   -5.8682 C.3       3 UNK         0.0250 
     28 CB         23.0627   -3.5615   -6.5995 C.3       3 UNK        -0.1990 
     29 N          23.6894   -2.6253   -4.4231 N.am      3 UNK        -0.4232 
     30 C          24.1736   -1.8061   -3.4794 C.2       2 UNK         0.4993 
     31 O          24.7422   -0.7397   -3.7220 O.2       2 UNK        -0.5286 
     32 CA         24.0528   -2.2647   -2.0161 C.3       2 UNK         0.0209 
     33 CB         23.1821   -3.5256   -1.8105 C.3       2 UNK        -0.1931 
     34 N          25.3723   -2.4576   -1.4067 N.am      2 UNK        -0.4546 
     35 C          26.3678   -3.2519   -1.8287 C.2       1 UNK         0.5154 
     36 O          26.3083   -3.9177   -2.8648 O.2       1 UNK        -0.5181 
     37 C          27.1887    1.6872   -4.8510 C.2       5 UNK         0.5014 
     38 O          27.7659    2.7231   -5.1811 O.2       5 UNK        -0.5248 
     39 N          25.9066    1.4274   -5.1515 N.am      6 UNK        -0.4434 
     40 CA         25.0436    2.3002   -5.9562 C.3       6 UNK         0.0363 
     41 CB         23.6157    1.7342   -5.9767 C.3       6 UNK        -0.1936 
     42 C          25.5614    2.5136   -7.3916 C.2       6 UNK         0.5081 
     43 O          25.3976    3.6045   -7.9375 O.2       6 UNK        -0.5248 
     44 N          26.2067    1.4862   -7.9612 N.am      7 UNK        -0.4718 
     45 CA         26.8951    1.5357   -9.2538 C.3       7 UNK         0.0273 
     46 CB         27.0974    0.0998   -9.7571 C.3       7 UNK        -0.1935 
     47 C          28.2355    2.3002   -9.2218 C.2       7 UNK         0.5018 
     48 O          28.7824    2.5809  -10.2907 O.2       7 UNK        -0.5186 
     49 N          28.7336    2.6343   -8.0204 N.am      8 UNK        -0.4240 
     50 CA         29.9333    3.4243   -7.7301 C.3       8 UNK         0.0235 
     51 CB         29.6798    4.9137   -8.0563 C.3       8 UNK        -0.2000 
     52 C          31.1938    2.8429   -8.3947 C.2       8 UNK         0.4941 
     53 O          31.7084    1.8279   -7.9255 O.2       8 UNK        -0.5273 
     54 N          31.6655    3.4891   -9.4700 N.am      9 UNK        -0.4262 
     55 CA         32.8165    3.0640  -10.2677 C.3       9 UNK         0.0264 
     56 CB         33.2074    4.1913  -11.2367 C.3       9 UNK        -0.1955 
     57 C          32.5802    1.7521  -11.0360 C.2       9 UNK         0.5031 
     58 O          33.5420    1.0211  -11.2759 O.2       9 UNK        -0.5390 
     59 N          31.3212    1.4482  -11.3834 N.am      10 UNK        -0.4204 
     60 CA         30.9190    0.2164  -12.0678 C.3       10 UNK         0.0237 
     61 CB         29.7406    0.5253  -13.0108 C.3       10 UNK        -0.1985 
     62 C          30.6119   -0.9077  -11.0585 C.2       10 UNK         0.4970 
     63 O          29.5766   -1.5659  -11.1650 O.2       10 UNK        -0.4914 
     64 N          31.5189   -1.0995  -10.0923 N.am      11 UNK        -0.4285 
     65 CA         31.4313   -2.0948   -9.0134 C.3       11 UNK         0.1007 
     66 C          31.3905   -3.5746   -9.5020 C.2       11 UNK         0.5703 
     67 N          32.0041   -3.9065  -10.6330 N.am      11 UNK        -0.7361 
     68 O          30.7818   -4.4265   -8.8595 O.2       11 UNK        -0.4986 
     69 C69        32.5668   -1.8615   -7.9804 C.3       12 UNK        -0.0947 
     70 S70        32.2170   -2.5955   -6.3495 S.3       12 UNK        -0.2240 
     71 C71        32.0996   -1.1139   -5.2880 C.3       12 UNK         0.0194 
     72 H72        27.6837   -1.4163    3.1178 H         1 UNK         0.0906 
     73 H73        25.9478   -1.6402    2.8846 H         1 UNK         0.0906 
     74 H74        27.0098   -3.0442    3.0175 H         1 UNK         0.0906 
     75 H75        27.3712   -4.0033    1.0265 H         1 UNK         0.3140 
     76 H76        28.2322   -2.4550   -1.2624 H         1 UNK         0.1085 
     77 H77        28.7895   -4.6258   -2.2689 H         1 UNK         0.0836 
     78 H78        27.9012   -5.4794   -1.0356 H         1 UNK         0.0836 
     79 H79        31.3164   -5.0084   -2.1458 H         1 UNK         0.0731 
     80 H80        32.2794   -4.3621   -0.8404 H         1 UNK         0.0731 
     81 H81        32.0266   -3.5028   -3.8285 H         1 UNK         0.1312 
     82 H82        31.1907    0.6934   -3.5173 H         1 UNK         0.1406 
     83 H83        30.4825   -1.8966   -0.1806 H         1 UNK         0.1631 
     84 H84        31.0345    1.2606   -0.5537 H         1 UNK         0.0717 
     85 H85        29.6450    0.3114   -0.0828 H         1 UNK         0.0717 
     86 H86        27.9682   -0.2912   -2.1128 H         1 UNK         0.0934 
     87 H87        26.8406    1.0140   -2.2711 H         1 UNK         0.0934 
     88 H88        29.0237    0.7537   -4.3727 H         1 UNK         0.0739 
     89 H89        26.9436   -1.2615   -4.1162 H         1 UNK         0.3093 
     90 H90        27.6535   -2.6893   -7.2957 H         1 UNK         0.0818 
     91 H91        28.4543   -3.6566   -4.4976 H         1 UNK         0.0819 
     92 H92        28.0735   -4.7117   -5.8598 H         1 UNK         0.0819 
     93 H93        29.4642   -3.6448   -5.9326 H         1 UNK         0.0819 
     94 H94        25.9687   -3.4356   -5.0729 H         1 UNK         0.3041 
     95 H95        23.1499   -1.4893   -6.0645 H         1 UNK         0.0784 
     96 H96        23.0657   -3.4008   -7.6786 H         1 UNK         0.0793 
     97 H97        23.5762   -4.5048   -6.4091 H         1 UNK         0.0793 
     98 H98        22.0223   -3.6766   -6.2948 H         1 UNK         0.0793 
     99 H99        23.2688   -3.4924   -4.1220 H         1 UNK         0.3024 
    100 H100       23.5765   -1.4400   -1.4832 H         1 UNK         0.1171 
    101 H101       23.0767   -3.7537   -0.7497 H         1 UNK         0.0786 
    102 H102       22.1744   -3.3812   -2.2028 H         1 UNK         0.0786 
    103 H103       23.6077   -4.4077   -2.2906 H         1 UNK         0.0786 
    104 H104       25.5704   -1.8895   -0.5905 H         1 UNK         0.2977 
    105 H105       25.4845    0.5759   -4.7842 H         1 UNK         0.3127 
    106 H106       25.0185    3.2754   -5.4657 H         1 UNK         0.0770 
    107 H107       23.5721    0.7793   -6.4996 H         1 UNK         0.0814 
    108 H108       22.9355    2.4157   -6.4891 H         1 UNK         0.0814 
    109 H109       23.2293    1.5852   -4.9682 H         1 UNK         0.0814 
    110 H110       26.2253    0.5962   -7.4751 H         1 UNK         0.2983 
    111 H111       26.2481    2.0557   -9.9635 H         1 UNK         0.0947 
    112 H112       27.5105    0.0959  -10.7647 H         1 UNK         0.0806 
    113 H113       26.1547   -0.4457   -9.7981 H         1 UNK         0.0806 
    114 H114       27.7821   -0.4600   -9.1187 H         1 UNK         0.0806 
    115 H115       28.2166    2.3405   -7.1997 H         1 UNK         0.3000 
    116 H116       30.0967    3.3473   -6.6540 H         1 UNK         0.0850 
    117 H117       30.5572    5.5225   -7.8336 H         1 UNK         0.0810 
    118 H118       28.8605    5.3053   -7.4531 H         1 UNK         0.0810 
    119 H119       29.4171    5.0733   -9.1026 H         1 UNK         0.0810 
    120 H120       31.1619    4.3028   -9.7928 H         1 UNK         0.3040 
    121 H121       33.6515    2.8958   -9.5841 H         1 UNK         0.0766 
    122 H122       33.4590    5.1069  -10.7010 H         1 UNK         0.0812 
    123 H123       32.4029    4.4204  -11.9367 H         1 UNK         0.0812 
    124 H124       34.0823    3.9126  -11.8261 H         1 UNK         0.0812 
    125 H125       30.5651    2.0520  -11.0699 H         1 UNK         0.3205 
    126 H126       31.7428   -0.1398  -12.6900 H         1 UNK         0.0754 
    127 H127       29.4220   -0.3674  -13.5507 H         1 UNK         0.0769 
    128 H128       30.0196    1.2693  -13.7570 H         1 UNK         0.0769 
    129 H129       28.8762    0.9085  -12.4695 H         1 UNK         0.0769 
    130 H130       32.3456   -0.5174  -10.0986 H         1 UNK         0.2981 
    131 H131       30.4796   -1.9046   -8.5126 H         1 UNK         0.0541 
    132 H132       32.5010   -3.2140  -11.1697 H         1 UNK         0.3459 
    133 H133       31.9682   -4.8620  -10.9513 H         1 UNK         0.3459 
    134 H134       33.5155   -2.2567   -8.3479 H         1 UNK         0.0612 
    135 H135       32.7288   -0.7915   -7.8401 H         1 UNK         0.0612 
    136 H136       31.4076   -0.4126   -5.7577 H         1 UNK         0.0624 
    137 H137       33.0735   -0.6231   -5.2644 H         1 UNK         0.0624 
@<TRIPOS>BOND
     1    1    2 1    
     2    1   72 1    
     3    1   73 1    
     4    1   74 1    
     5    2    3 2    
     6    2    4 am   BACKBONE|DICT|INTERRES
     7    4    5 1    
     8    4   75 1    
     9    5    6 1    
    10    5   35 1    
    11    5   76 1    
    12    6    7 1    
    13    6   77 1    
    14    6   78 1    
    15    7    8 1    
    16    8    9 1    
    17    8   79 1    
    18    8   80 1    
    19    9   10 ar   
    20    9   14 ar   
    21   10   11 ar   
    22   10   81 1    
    23   11   12 ar   
    24   11   71 1    
    25   12   13 ar   
    26   12   82 1    
    27   13   14 ar   
    28   13   15 1    
    29   14   83 1    
    30   15   16 1    
    31   15   84 1    
    32   15   85 1    
    33   16   17 1    
    34   17   18 1    
    35   17   86 1    
    36   17   87 1    
    37   18   19 1    
    38   18   37 1    
    39   18   88 1    
    40   19   20 am   BACKBONE|DICT|INTERRES
    41   19   89 1    
    42   20   21 2    
    43   20   22 1    
    44   22   23 1    
    45   22   24 1    
    46   22   90 1    
    47   23   91 1    
    48   23   92 1    
    49   23   93 1    
    50   24   25 am   BACKBONE|DICT|INTERRES
    51   24   94 1    
    52   25   26 2    
    53   25   27 1    
    54   27   28 1    
    55   27   29 1    
    56   27   95 1    
    57   28   96 1    
    58   28   97 1    
    59   28   98 1    
    60   29   30 am   BACKBONE|DICT|INTERRES
    61   29   99 1    
    62   30   31 2    
    63   30   32 1    
    64   32   33 1    
    65   32   34 1    
    66   32  100 1    
    67   33  101 1    
    68   33  102 1    
    69   33  103 1    
    70   34   35 am   BACKBONE|DICT|INTERRES
    71   34  104 1    
    72   35   36 2    
    73   37   38 2    
    74   37   39 am   BACKBONE|DICT|INTERRES
    75   39   40 1    
    76   39  105 1    
    77   40   41 1    
    78   40   42 1    
    79   40  106 1    
    80   41  107 1    
    81   41  108 1    
    82   41  109 1    
    83   42   43 2    
    84   42   44 am   BACKBONE|DICT|INTERRES
    85   44   45 1    
    86   44  110 1    
    87   45   46 1    
    88   45   47 1    
    89   45  111 1    
    90   46  112 1    
    91   46  113 1    
    92   46  114 1    
    93   47   48 2    
    94   47   49 am   BACKBONE|DICT|INTERRES
    95   49   50 1    
    96   49  115 1    
    97   50   51 1    
    98   50   52 1    
    99   50  116 1    
   100   51  117 1    
   101   51  118 1    
   102   51  119 1    
   103   52   53 2    
   104   52   54 am   BACKBONE|DICT|INTERRES
   105   54   55 1    
   106   54  120 1    
   107   55   56 1    
   108   55   57 1    
   109   55  121 1    
   110   56  122 1    
   111   56  123 1    
   112   56  124 1    
   113   57   58 2    
   114   57   59 am   BACKBONE|DICT|INTERRES
   115   59   60 1    
   116   59  125 1    
   117   60   61 1    
   118   60   62 1    
   119   60  126 1    
   120   61  127 1    
   121   61  128 1    
   122   61  129 1    
   123   62   63 2    
   124   62   64 am   BACKBONE|DICT|INTERRES
   125   64   65 1    
   126   64  130 1    
   127   65   66 1    
   128   65   69 1    
   129   65  131 1    
   130   66   67 am   BACKBONE|DICT|INTERRES
   131   66   68 2    
   132   67  132 1    
   133   67  133 1    
   134   69   70 1    
   135   69  134 1    
   136   69  135 1    
   137   70   71 1    
   138   71  136 1    
   139   71  137 1    
@<TRIPOS>SUBSTRUCTURE
     1 UNK         1 GROUP             0       ****    0 ROOT    
