@<TRIPOS>MOLECULE
3R137
137   139    1
SMALL
USER_CHARGES


@<TRIPOS>ATOM
      1 CA         26.9690   -1.6120    4.6520 C.3       0 UNK        -0.2020 
      2 C          27.1113   -1.3315    3.1633 C.2       0 UNK         0.4855 
      3 O          26.6332   -0.3014    2.6864 O.2       0 UNK        -0.5197 
      4 N          27.7716   -2.2347    2.4275 N.am      1 UNK        -0.4892 
      5 CA         27.9392   -2.1624    0.9719 C.3       1 UNK         0.0835 
      6 C6         29.1563   -3.0048    0.5123 C.3       12 UNK        -0.0855 
      7 S7         29.8285   -2.4486   -1.0923 S.3       12 UNK        -0.2931 
      8 C8         29.8306   -4.0162   -2.0209 C.3       12 UNK         0.0378 
      9 C9         30.2947   -3.8425   -3.4625 C.ar      12 UNK        -0.0802 
     10 C10        31.5232   -3.2353   -3.7463 C.ar      12 UNK        -0.0944 
     11 C11        31.9702   -3.1144   -5.0644 C.ar      12 UNK        -0.0787 
     12 C12        31.1674   -3.5978   -6.1019 C.ar      12 UNK        -0.0862 
     13 C13        29.9317   -4.1996   -5.8441 C.ar      12 UNK        -0.0733 
     14 C14        29.5139   -4.3364   -4.5135 C.ar      12 UNK        -0.0832 
     15 C15        29.1259   -4.7141   -7.0416 C.3       12 UNK         0.0240 
     16 S16        27.3818   -5.1901   -6.7519 S.3       12 UNK        -0.2522 
     17 C17        26.5908   -3.6884   -6.0821 C.3       12 UNK        -0.0967 
     18 CA         26.3226   -2.5613   -7.1133 C.3       5 UNK         0.0660 
     19 N          25.1311   -1.7893   -6.7547 N.am      5 UNK        -0.4015 
     20 C          24.5555   -0.8413   -7.5072 C.2       4 UNK         0.4946 
     21 O          24.9226   -0.5394   -8.6428 O.2       4 UNK        -0.5353 
     22 CA         23.3897   -0.0745   -6.8598 C.3       4 UNK         0.0277 
     23 CB         22.0669   -0.8327   -7.0546 C.3       4 UNK        -0.1981 
     24 N          23.6029    0.1903   -5.4321 N.am      4 UNK        -0.4209 
     25 C          24.5602    0.9995   -4.9562 C.2       3 UNK         0.4942 
     26 O          25.3559    1.6106   -5.6667 O.2       3 UNK        -0.5208 
     27 CA         24.6785    1.1222   -3.4294 C.3       3 UNK         0.0250 
     28 CB         23.6104    2.0805   -2.8777 C.3       3 UNK        -0.1990 
     29 N          24.6224   -0.1530   -2.7048 N.am      3 UNK        -0.4232 
     30 C          25.4333   -1.1987   -2.9170 C.2       2 UNK         0.4993 
     31 O          26.2560   -1.2622   -3.8321 O.2       2 UNK        -0.5286 
     32 CA         25.3745   -2.3333   -1.8936 C.3       2 UNK         0.0209 
     33 CB         25.4193   -3.7244   -2.5531 C.3       2 UNK        -0.1931 
     34 N          26.5306   -2.1503   -1.0264 N.am      2 UNK        -0.4546 
     35 C          26.6362   -2.5593    0.2402 C.2       1 UNK         0.5154 
     36 O          25.7696   -3.2229    0.8174 O.2       1 UNK        -0.5181 
     37 C          27.5362   -1.6253   -7.2444 C.2       5 UNK         0.5014 
     38 O          28.1777   -1.5959   -8.2954 O.2       5 UNK        -0.5248 
     39 N          27.7965   -0.8535   -6.1794 N.am      6 UNK        -0.4434 
     40 CA         28.8946    0.1037   -6.0906 C.3       6 UNK         0.0363 
     41 CB         28.9451    0.7049   -4.6782 C.3       6 UNK        -0.1936 
     42 C          28.8212    1.2036   -7.1589 C.2       6 UNK         0.5081 
     43 O          29.8518    1.5285   -7.7434 O.2       6 UNK        -0.5248 
     44 N          27.6161    1.7237   -7.4321 N.am      7 UNK        -0.4718 
     45 CA         27.3588    2.6978   -8.4954 C.3       7 UNK         0.0273 
     46 CB         25.9176    3.2207   -8.3904 C.3       7 UNK        -0.1935 
     47 C          27.6289    2.1388   -9.9015 C.2       7 UNK         0.5018 
     48 O          28.2416    2.8342  -10.7121 O.2       7 UNK        -0.5186 
     49 N          27.1914    0.8976  -10.1619 N.am      8 UNK        -0.4240 
     50 CA         27.4173    0.1967  -11.4292 C.3       8 UNK         0.0235 
     51 CB         26.5389   -1.0632  -11.4920 C.3       8 UNK        -0.2000 
     52 C          28.8959   -0.1580  -11.6570 C.2       8 UNK         0.4941 
     53 O          29.3974    0.0218  -12.7674 O.2       8 UNK        -0.5273 
     54 N          29.5665   -0.6442  -10.6045 N.am      9 UNK        -0.4262 
     55 CA         30.9831   -1.0174  -10.6213 C.3       9 UNK         0.0264 
     56 CB         31.2439   -1.9887   -9.4619 C.3       9 UNK        -0.1955 
     57 C          31.9497    0.1806  -10.5490 C.2       9 UNK         0.5031 
     58 O          33.1295    0.0065  -10.8576 O.2       9 UNK        -0.5390 
     59 N          31.4465    1.3531  -10.1349 N.am      10 UNK        -0.4204 
     60 CA         32.1738    2.5961   -9.8479 C.3       10 UNK         0.0237 
     61 CB         32.8485    3.1644  -11.1152 C.3       10 UNK        -0.1985 
     62 C          33.1347    2.4481   -8.6499 C.2       10 UNK         0.4970 
     63 O          34.2603    2.9492   -8.6914 O.2       10 UNK        -0.4914 
     64 N          32.6643    1.7593   -7.6042 N.am      11 UNK        -0.4285 
     65 CA         33.3679    1.5634   -6.3302 C.3       11 UNK         0.1007 
     66 C          33.1981    2.7902   -5.3964 C.2       11 UNK         0.5703 
     67 N          34.1877    3.0715   -4.5595 N.am      11 UNK        -0.7361 
     68 O          32.1707    3.4664   -5.3948 O.2       11 UNK        -0.4986 
     69 C69        32.9163    0.2582   -5.6230 C.3       12 UNK        -0.0947 
     70 S70        33.3317   -1.2142   -6.6122 S.3       12 UNK        -0.2240 
     71 C71        33.3513   -2.5371   -5.3589 C.3       12 UNK         0.0194 
     72 H72        27.4521   -2.5455    4.9401 H         1 UNK         0.0906 
     73 H73        27.4186   -0.8055    5.2307 H         1 UNK         0.0906 
     74 H74        25.9153   -1.6787    4.9217 H         1 UNK         0.0906 
     75 H75        28.1070   -3.0805    2.8667 H         1 UNK         0.3140 
     76 H76        28.1414   -1.1162    0.7281 H         1 UNK         0.1085 
     77 H77        29.9694   -2.9074    1.2340 H         1 UNK         0.0836 
     78 H78        28.9119   -4.0688    0.4869 H         1 UNK         0.0836 
     79 H79        30.4881   -4.7295   -1.5218 H         1 UNK         0.0731 
     80 H80        28.8257   -4.4411   -1.9901 H         1 UNK         0.0731 
     81 H81        32.1406   -2.8771   -2.9338 H         1 UNK         0.1312 
     82 H82        31.5206   -3.5216   -7.1203 H         1 UNK         0.1406 
     83 H83        28.5846   -4.8381   -4.2858 H         1 UNK         0.1631 
     84 H84        29.6412   -5.5914   -7.4345 H         1 UNK         0.0717 
     85 H85        29.1523   -3.9764   -7.8428 H         1 UNK         0.0717 
     86 H86        25.6407   -4.0357   -5.6735 H         1 UNK         0.0934 
     87 H87        27.1431   -3.3211   -5.2185 H         1 UNK         0.0934 
     88 H88        26.1319   -3.0093   -8.0909 H         1 UNK         0.0739 
     89 H89        24.7910   -1.9111   -5.8128 H         1 UNK         0.3093 
     90 H90        23.3083    0.8880   -7.3698 H         1 UNK         0.0818 
     91 H91        21.2208   -0.2570   -6.6789 H         1 UNK         0.0819 
     92 H92        21.8810   -1.0244   -8.1124 H         1 UNK         0.0819 
     93 H93        22.0710   -1.7969   -6.5448 H         1 UNK         0.0819 
     94 H94        22.9881   -0.2700   -4.7764 H         1 UNK         0.3041 
     95 H95        25.6577    1.5592   -3.2223 H         1 UNK         0.0784 
     96 H96        23.6422    3.0404   -3.3956 H         1 UNK         0.0793 
     97 H97        22.6033    1.6791   -2.9971 H         1 UNK         0.0793 
     98 H98        23.7678    2.2831   -1.8181 H         1 UNK         0.0793 
     99 H99        23.9899   -0.1868   -1.9179 H         1 UNK         0.3024 
    100 H100       24.4539   -2.2469   -1.3115 H         1 UNK         0.1171 
    101 H101       25.2894   -4.5142   -1.8132 H         1 UNK         0.0786 
    102 H102       26.3685   -3.9010   -3.0584 H         1 UNK         0.0786 
    103 H103       24.6228   -3.8363   -3.2895 H         1 UNK         0.0786 
    104 H104       27.2989   -1.6378   -1.4423 H         1 UNK         0.2977 
    105 H105       27.2097   -0.9488   -5.3508 H         1 UNK         0.3127 
    106 H106       29.8154   -0.4577   -6.2603 H         1 UNK         0.0770 
    107 H107       28.0165    1.2190   -4.4276 H         1 UNK         0.0814 
    108 H108       29.7559    1.4293   -4.5890 H         1 UNK         0.0814 
    109 H109       29.1135   -0.0679   -3.9273 H         1 UNK         0.0814 
    110 H110       26.8193    1.4510   -6.8604 H         1 UNK         0.2983 
    111 H111       28.0375    3.5397   -8.3418 H         1 UNK         0.0947 
    112 H112       25.7057    3.9474   -9.1758 H         1 UNK         0.0806 
    113 H113       25.7461    3.7174   -7.4353 H         1 UNK         0.0806 
    114 H114       25.1886    2.4147   -8.4833 H         1 UNK         0.0806 
    115 H115       26.6735    0.3959   -9.4474 H         1 UNK         0.3000 
    116 H116       27.1099    0.8627  -12.2385 H         1 UNK         0.0850 
    117 H117       26.6875   -1.5981  -12.4309 H         1 UNK         0.0810 
    118 H118       25.4805   -0.8104  -11.4263 H         1 UNK         0.0810 
    119 H119       26.7658   -1.7557  -10.6803 H         1 UNK         0.0810 
    120 H120       29.0566   -0.8228   -9.7396 H         1 UNK         0.3040 
    121 H121       31.1909   -1.5433  -11.5555 H         1 UNK         0.0766 
    122 H122       32.2911   -2.2921   -9.4279 H         1 UNK         0.0812 
    123 H123       31.0009   -1.5319   -8.5016 H         1 UNK         0.0812 
    124 H124       30.6456   -2.8940   -9.5630 H         1 UNK         0.0812 
    125 H125       30.4790    1.3535   -9.8342 H         1 UNK         0.3205 
    126 H126       31.4155    3.3152   -9.5340 H         1 UNK         0.0754 
    127 H127       33.2594    4.1566  -10.9253 H         1 UNK         0.0769 
    128 H128       32.1349    3.2605  -11.9336 H         1 UNK         0.0769 
    129 H129       33.6700    2.5346  -11.4574 H         1 UNK         0.0769 
    130 H130       31.6869    1.4783   -7.6239 H         1 UNK         0.2981 
    131 H131       34.4337    1.4675   -6.5486 H         1 UNK         0.0541 
    132 H132       35.0310    2.5192   -4.5431 H         1 UNK         0.3459 
    133 H133       34.0915    3.8569   -3.9349 H         1 UNK         0.3459 
    134 H134       31.8445    0.2668   -5.4278 H         1 UNK         0.0612 
    135 H135       33.4056    0.1662   -4.6517 H         1 UNK         0.0612 
    136 H136       33.9838   -3.3452   -5.7284 H         1 UNK         0.0624 
    137 H137       33.8293   -2.1704   -4.4494 H         1 UNK         0.0624 
@<TRIPOS>BOND
     1    1    2 1    
     2    1   72 1    
     3    1   73 1    
     4    1   74 1    
     5    2    3 2    
     6    2    4 am   BACKBONE|DICT|INTERRES
     7    4    5 1    
     8    4   75 1    
     9    5    6 1    
    10    5   35 1    
    11    5   76 1    
    12    6    7 1    
    13    6   77 1    
    14    6   78 1    
    15    7    8 1    
    16    8    9 1    
    17    8   79 1    
    18    8   80 1    
    19    9   10 ar   
    20    9   14 ar   
    21   10   11 ar   
    22   10   81 1    
    23   11   12 ar   
    24   11   71 1    
    25   12   13 ar   
    26   12   82 1    
    27   13   14 ar   
    28   13   15 1    
    29   14   83 1    
    30   15   16 1    
    31   15   84 1    
    32   15   85 1    
    33   16   17 1    
    34   17   18 1    
    35   17   86 1    
    36   17   87 1    
    37   18   19 1    
    38   18   37 1    
    39   18   88 1    
    40   19   20 am   BACKBONE|DICT|INTERRES
    41   19   89 1    
    42   20   21 2    
    43   20   22 1    
    44   22   23 1    
    45   22   24 1    
    46   22   90 1    
    47   23   91 1    
    48   23   92 1    
    49   23   93 1    
    50   24   25 am   BACKBONE|DICT|INTERRES
    51   24   94 1    
    52   25   26 2    
    53   25   27 1    
    54   27   28 1    
    55   27   29 1    
    56   27   95 1    
    57   28   96 1    
    58   28   97 1    
    59   28   98 1    
    60   29   30 am   BACKBONE|DICT|INTERRES
    61   29   99 1    
    62   30   31 2    
    63   30   32 1    
    64   32   33 1    
    65   32   34 1    
    66   32  100 1    
    67   33  101 1    
    68   33  102 1    
    69   33  103 1    
    70   34   35 am   BACKBONE|DICT|INTERRES
    71   34  104 1    
    72   35   36 2    
    73   37   38 2    
    74   37   39 am   BACKBONE|DICT|INTERRES
    75   39   40 1    
    76   39  105 1    
    77   40   41 1    
    78   40   42 1    
    79   40  106 1    
    80   41  107 1    
    81   41  108 1    
    82   41  109 1    
    83   42   43 2    
    84   42   44 am   BACKBONE|DICT|INTERRES
    85   44   45 1    
    86   44  110 1    
    87   45   46 1    
    88   45   47 1    
    89   45  111 1    
    90   46  112 1    
    91   46  113 1    
    92   46  114 1    
    93   47   48 2    
    94   47   49 am   BACKBONE|DICT|INTERRES
    95   49   50 1    
    96   49  115 1    
    97   50   51 1    
    98   50   52 1    
    99   50  116 1    
   100   51  117 1    
   101   51  118 1    
   102   51  119 1    
   103   52   53 2    
   104   52   54 am   BACKBONE|DICT|INTERRES
   105   54   55 1    
   106   54  120 1    
   107   55   56 1    
   108   55   57 1    
   109   55  121 1    
   110   56  122 1    
   111   56  123 1    
   112   56  124 1    
   113   57   58 2    
   114   57   59 am   BACKBONE|DICT|INTERRES
   115   59   60 1    
   116   59  125 1    
   117   60   61 1    
   118   60   62 1    
   119   60  126 1    
   120   61  127 1    
   121   61  128 1    
   122   61  129 1    
   123   62   63 2    
   124   62   64 am   BACKBONE|DICT|INTERRES
   125   64   65 1    
   126   64  130 1    
   127   65   66 1    
   128   65   69 1    
   129   65  131 1    
   130   66   67 am   BACKBONE|DICT|INTERRES
   131   66   68 2    
   132   67  132 1    
   133   67  133 1    
   134   69   70 1    
   135   69  134 1    
   136   69  135 1    
   137   70   71 1    
   138   71  136 1    
   139   71  137 1    
@<TRIPOS>SUBSTRUCTURE
     1 UNK         1 GROUP             0       ****    0 ROOT    
