@<TRIPOS>MOLECULE
3R137
137   139    1
SMALL
USER_CHARGES


@<TRIPOS>ATOM
      1 CA         23.6754   -3.2015    0.6721 C.3       0 UNK        -0.2020 
      2 C          25.1538   -2.9638    0.4058 C.2       0 UNK         0.4855 
      3 O          25.6518   -1.8656    0.6551 O.2       0 UNK        -0.5197 
      4 N          25.8634   -3.9830   -0.0971 N.am      1 UNK        -0.4892 
      5 CA         27.2832   -3.9028   -0.4573 C.3       1 UNK         0.0835 
      6 C6         27.8892   -5.3052   -0.7019 C.3       12 UNK        -0.0855 
      7 S7         29.7028   -5.3074   -0.4932 S.3       12 UNK        -0.2931 
      8 C8         30.2604   -6.1954   -1.9813 C.3       12 UNK         0.0378 
      9 C9         30.1737   -5.3497   -3.2457 C.ar      12 UNK        -0.0802 
     10 C10        31.1400   -4.3722   -3.5054 C.ar      12 UNK        -0.0944 
     11 C11        31.1260   -3.6434   -4.7001 C.ar      12 UNK        -0.0787 
     12 C12        30.1170   -3.9052   -5.6369 C.ar      12 UNK        -0.0862 
     13 C13        29.1359   -4.8680   -5.3847 C.ar      12 UNK        -0.0733 
     14 C14        29.1667   -5.5852   -4.1859 C.ar      12 UNK        -0.0832 
     15 C15        28.0645   -5.1590   -6.4264 C.3       12 UNK         0.0240 
     16 S16        26.5781   -4.1404   -6.1810 S.3       12 UNK        -0.2522 
     17 C17        27.1978   -2.4944   -6.6658 C.3       12 UNK        -0.0967 
     18 CA         26.0796   -1.4237   -6.7375 C.3       5 UNK         0.0660 
     19 N          25.4071   -1.2771   -5.4462 N.am      5 UNK        -0.4015 
     20 C          24.1015   -1.4472   -5.2067 C.2       4 UNK         0.4946 
     21 O          23.2715   -1.6994   -6.0810 O.2       4 UNK        -0.5353 
     22 CA         23.6300   -1.3069   -3.7469 C.3       4 UNK         0.0277 
     23 CB         23.2621   -2.6810   -3.1628 C.3       4 UNK        -0.1981 
     24 N          24.6328   -0.6645   -2.8907 N.am      4 UNK        -0.4209 
     25 C          24.8186    0.6628   -2.8275 C.2       3 UNK         0.4942 
     26 O          24.1021    1.4751   -3.4125 O.2       3 UNK        -0.5208 
     27 CA         26.0165    1.1820   -2.0106 C.3       3 UNK         0.0250 
     28 CB         25.5712    1.5812   -0.5951 C.3       3 UNK        -0.1990 
     29 N          27.1332    0.2362   -1.9231 N.am      3 UNK        -0.4232 
     30 C          27.8690   -0.1767   -2.9666 C.2       2 UNK         0.4993 
     31 O          27.6796    0.1931   -4.1220 O.2       2 UNK        -0.5286 
     32 CA         28.9498   -1.2351   -2.6905 C.3       2 UNK         0.0209 
     33 CB         30.2788   -0.5603   -2.3179 C.3       2 UNK        -0.1931 
     34 N          28.5822   -2.1946   -1.6453 N.am      2 UNK        -0.4546 
     35 C          27.4894   -2.9699   -1.6671 C.2       1 UNK         0.5154 
     36 O          26.6539   -2.9513   -2.5742 O.2       1 UNK        -0.5181 
     37 C          26.6413   -0.0621   -7.1988 C.2       5 UNK         0.5014 
     38 O          27.6054   -0.0352   -7.9634 O.2       5 UNK        -0.5248 
     39 N          26.0458    1.0477   -6.7326 N.am      6 UNK        -0.4434 
     40 CA         26.5472    2.4193   -6.8868 C.3       6 UNK         0.0363 
     41 CB         25.6317    3.3771   -6.1078 C.3       6 UNK        -0.1936 
     42 C          26.7266    2.9070   -8.3378 C.2       6 UNK         0.5081 
     43 O          27.4761    3.8578   -8.5613 O.2       6 UNK        -0.5248 
     44 N          26.0419    2.2616   -9.2906 N.am      7 UNK        -0.4718 
     45 CA         26.1662    2.5167  -10.7262 C.3       7 UNK         0.0273 
     46 CB         24.9026    1.9968  -11.4319 C.3       7 UNK        -0.1935 
     47 C          27.4280    1.8971  -11.3596 C.2       7 UNK         0.5018 
     48 O          27.7894    2.3041  -12.4654 O.2       7 UNK        -0.5186 
     49 N          28.0602    0.9197  -10.6920 N.am      8 UNK        -0.4240 
     50 CA         29.2758    0.2565  -11.1693 C.3       8 UNK         0.0235 
     51 CB         29.4007   -1.1233  -10.5014 C.3       8 UNK        -0.2000 
     52 C          30.5237    1.1081  -10.8888 C.2       8 UNK         0.4941 
     53 O          30.5261    1.9187   -9.9581 O.2       8 UNK        -0.5273 
     54 N          31.5772    0.8849  -11.6866 N.am      9 UNK        -0.4262 
     55 CA         32.8820    1.5387  -11.5527 C.3       9 UNK         0.0264 
     56 CB         33.8001    1.0859  -12.6995 C.3       9 UNK        -0.1955 
     57 C          33.5318    1.2417  -10.1909 C.2       9 UNK         0.5031 
     58 O          33.4969    0.0940   -9.7405 O.2       9 UNK        -0.5390 
     59 N          34.0860    2.2856   -9.5600 N.am      10 UNK        -0.4204 
     60 CA         34.6896    2.3354   -8.2189 C.3       10 UNK         0.0237 
     61 CB         35.8890    1.3746   -8.0912 C.3       10 UNK        -0.1985 
     62 C          33.6926    2.1396   -7.0596 C.2       10 UNK         0.4970 
     63 O          33.7826    2.8709   -6.0726 O.2       10 UNK        -0.4914 
     64 N          32.7738    1.1761   -7.1862 N.am      11 UNK        -0.4285 
     65 CA         31.7235    0.8727   -6.2026 C.3       11 UNK         0.1007 
     66 C          30.6495    1.9897   -6.0861 C.2       11 UNK         0.5703 
     67 N          30.2615    2.6390   -7.1776 N.am      11 UNK        -0.7361 
     68 O          30.1918    2.2934   -4.9880 O.2       11 UNK        -0.4986 
     69 C69        31.0685   -0.5115   -6.4504 C.3       12 UNK        -0.0947 
     70 S70        32.2997   -1.8543   -6.5924 S.3       12 UNK        -0.2240 
     71 C71        32.2356   -2.6128   -4.9324 C.3       12 UNK         0.0194 
     72 H72        23.4985   -3.2929    1.7433 H         1 UNK         0.0906 
     73 H73        23.3154   -4.1082    0.1862 H         1 UNK         0.0906 
     74 H74        23.0867   -2.3625    0.3020 H         1 UNK         0.0906 
     75 H75        25.3998   -4.8531   -0.3162 H         1 UNK         0.3140 
     76 H76        27.7897   -3.4577    0.4028 H         1 UNK         0.1085 
     77 H77        27.4919   -6.0160    0.0246 H         1 UNK         0.0836 
     78 H78        27.6056   -5.6931   -1.6821 H         1 UNK         0.0836 
     79 H79        31.2964   -6.5033   -1.8322 H         1 UNK         0.0731 
     80 H80        29.6879   -7.1181   -2.0893 H         1 UNK         0.0731 
     81 H81        31.9208   -4.1933   -2.7785 H         1 UNK         0.1312 
     82 H82        30.0835   -3.3693   -6.5740 H         1 UNK         0.1406 
     83 H83        28.4174   -6.3421   -3.9977 H         1 UNK         0.1631 
     84 H84        27.7785   -6.2107   -6.3780 H         1 UNK         0.0717 
     85 H85        28.4560   -4.9997   -7.4324 H         1 UNK         0.0717 
     86 H86        27.9608   -2.1843   -5.9498 H         1 UNK         0.0934 
     87 H87        27.6981   -2.5945   -7.6312 H         1 UNK         0.0934 
     88 H88        25.3637   -1.7328   -7.5015 H         1 UNK         0.0739 
     89 H89        26.0182   -1.0250   -4.6782 H         1 UNK         0.3093 
     90 H90        22.7255   -0.6947   -3.7550 H         1 UNK         0.0818 
     91 H91        22.4929   -3.1663   -3.7650 H         1 UNK         0.0819 
     92 H92        24.1198   -3.3535   -3.1324 H         1 UNK         0.0819 
     93 H93        22.8672   -2.5888   -2.1521 H         1 UNK         0.0819 
     94 H94        25.2899   -1.2806   -2.4246 H         1 UNK         0.3041 
     95 H95        26.3863    2.0769   -2.5160 H         1 UNK         0.0784 
     96 H96        24.7682    2.3189   -0.6327 H         1 UNK         0.0793 
     97 H97        25.1993    0.7248   -0.0317 H         1 UNK         0.0793 
     98 H98        26.3909    2.0257   -0.0303 H         1 UNK         0.0793 
     99 H99        27.3297   -0.1533   -1.0115 H         1 UNK         0.3024 
    100 H100       29.0923   -1.8025   -3.6128 H         1 UNK         0.1171 
    101 H101       30.1870    0.0403   -1.4121 H         1 UNK         0.0786 
    102 H102       31.0660   -1.2954   -2.1517 H         1 UNK         0.0786 
    103 H103       30.6143    0.1036   -3.1159 H         1 UNK         0.0786 
    104 H104       29.2274   -2.2910   -0.8741 H         1 UNK         0.2977 
    105 H105       25.2578    0.9306   -6.1123 H         1 UNK         0.3127 
    106 H106       27.5331    2.4441   -6.4197 H         1 UNK         0.0770 
    107 H107       25.9810    4.4074   -6.1897 H         1 UNK         0.0814 
    108 H108       24.6071    3.3487   -6.4802 H         1 UNK         0.0814 
    109 H109       25.6125    3.1302   -5.0463 H         1 UNK         0.0814 
    110 H110       25.4510    1.4925   -9.0106 H         1 UNK         0.2983 
    111 H111       26.2242    3.5963  -10.8831 H         1 UNK         0.0947 
    112 H112       24.7864    0.9190  -11.3106 H         1 UNK         0.0806 
    113 H113       24.9411    2.2014  -12.5029 H         1 UNK         0.0806 
    114 H114       24.0044    2.4786  -11.0450 H         1 UNK         0.0806 
    115 H115       27.7644    0.6870   -9.7473 H         1 UNK         0.3000 
    116 H116       29.1907    0.1080  -12.2481 H         1 UNK         0.0850 
    117 H117       30.2539   -1.6756  -10.8970 H         1 UNK         0.0810 
    118 H118       28.5121   -1.7309  -10.6730 H         1 UNK         0.0810 
    119 H119       29.5442   -1.0389   -9.4249 H         1 UNK         0.0810 
    120 H120       31.5036    0.1737  -12.3993 H         1 UNK         0.3040 
    121 H121       32.7191    2.6149  -11.6424 H         1 UNK         0.0766 
    122 H122       34.7721    1.5775  -12.6388 H         1 UNK         0.0812 
    123 H123       33.3744    1.3325  -13.6724 H         1 UNK         0.0812 
    124 H124       33.9780    0.0098  -12.6721 H         1 UNK         0.0812 
    125 H125       34.0275    3.1834  -10.0219 H         1 UNK         0.3205 
    126 H126       35.0799    3.3497   -8.1183 H         1 UNK         0.0754 
    127 H127       36.3968    1.5144   -7.1360 H         1 UNK         0.0769 
    128 H128       36.6232    1.5498   -8.8775 H         1 UNK         0.0769 
    129 H129       35.5847    0.3287   -8.1427 H         1 UNK         0.0769 
    130 H130       32.7952    0.6044   -8.0257 H         1 UNK         0.2981 
    131 H131       32.2160    0.8176   -5.2296 H         1 UNK         0.0541 
    132 H132       29.5762    3.3725   -7.1009 H         1 UNK         0.3459 
    133 H133       30.5705    2.3510   -8.1023 H         1 UNK         0.3459 
    134 H134       30.4881   -0.4910   -7.3734 H         1 UNK         0.0612 
    135 H135       30.3602   -0.7509   -5.6550 H         1 UNK         0.0612 
    136 H136       32.1643   -1.8223   -4.1861 H         1 UNK         0.0624 
    137 H137       33.1956   -3.1032   -4.7650 H         1 UNK         0.0624 
@<TRIPOS>BOND
     1    1    2 1    
     2    1   72 1    
     3    1   73 1    
     4    1   74 1    
     5    2    3 2    
     6    2    4 am   BACKBONE|DICT|INTERRES
     7    4    5 1    
     8    4   75 1    
     9    5    6 1    
    10    5   35 1    
    11    5   76 1    
    12    6    7 1    
    13    6   77 1    
    14    6   78 1    
    15    7    8 1    
    16    8    9 1    
    17    8   79 1    
    18    8   80 1    
    19    9   10 ar   
    20    9   14 ar   
    21   10   11 ar   
    22   10   81 1    
    23   11   12 ar   
    24   11   71 1    
    25   12   13 ar   
    26   12   82 1    
    27   13   14 ar   
    28   13   15 1    
    29   14   83 1    
    30   15   16 1    
    31   15   84 1    
    32   15   85 1    
    33   16   17 1    
    34   17   18 1    
    35   17   86 1    
    36   17   87 1    
    37   18   19 1    
    38   18   37 1    
    39   18   88 1    
    40   19   20 am   BACKBONE|DICT|INTERRES
    41   19   89 1    
    42   20   21 2    
    43   20   22 1    
    44   22   23 1    
    45   22   24 1    
    46   22   90 1    
    47   23   91 1    
    48   23   92 1    
    49   23   93 1    
    50   24   25 am   BACKBONE|DICT|INTERRES
    51   24   94 1    
    52   25   26 2    
    53   25   27 1    
    54   27   28 1    
    55   27   29 1    
    56   27   95 1    
    57   28   96 1    
    58   28   97 1    
    59   28   98 1    
    60   29   30 am   BACKBONE|DICT|INTERRES
    61   29   99 1    
    62   30   31 2    
    63   30   32 1    
    64   32   33 1    
    65   32   34 1    
    66   32  100 1    
    67   33  101 1    
    68   33  102 1    
    69   33  103 1    
    70   34   35 am   BACKBONE|DICT|INTERRES
    71   34  104 1    
    72   35   36 2    
    73   37   38 2    
    74   37   39 am   BACKBONE|DICT|INTERRES
    75   39   40 1    
    76   39  105 1    
    77   40   41 1    
    78   40   42 1    
    79   40  106 1    
    80   41  107 1    
    81   41  108 1    
    82   41  109 1    
    83   42   43 2    
    84   42   44 am   BACKBONE|DICT|INTERRES
    85   44   45 1    
    86   44  110 1    
    87   45   46 1    
    88   45   47 1    
    89   45  111 1    
    90   46  112 1    
    91   46  113 1    
    92   46  114 1    
    93   47   48 2    
    94   47   49 am   BACKBONE|DICT|INTERRES
    95   49   50 1    
    96   49  115 1    
    97   50   51 1    
    98   50   52 1    
    99   50  116 1    
   100   51  117 1    
   101   51  118 1    
   102   51  119 1    
   103   52   53 2    
   104   52   54 am   BACKBONE|DICT|INTERRES
   105   54   55 1    
   106   54  120 1    
   107   55   56 1    
   108   55   57 1    
   109   55  121 1    
   110   56  122 1    
   111   56  123 1    
   112   56  124 1    
   113   57   58 2    
   114   57   59 am   BACKBONE|DICT|INTERRES
   115   59   60 1    
   116   59  125 1    
   117   60   61 1    
   118   60   62 1    
   119   60  126 1    
   120   61  127 1    
   121   61  128 1    
   122   61  129 1    
   123   62   63 2    
   124   62   64 am   BACKBONE|DICT|INTERRES
   125   64   65 1    
   126   64  130 1    
   127   65   66 1    
   128   65   69 1    
   129   65  131 1    
   130   66   67 am   BACKBONE|DICT|INTERRES
   131   66   68 2    
   132   67  132 1    
   133   67  133 1    
   134   69   70 1    
   135   69  134 1    
   136   69  135 1    
   137   70   71 1    
   138   71  136 1    
   139   71  137 1    
@<TRIPOS>SUBSTRUCTURE
     1 UNK         1 GROUP             0       ****    0 ROOT    
