@<TRIPOS>MOLECULE
3R137
137   139    1
SMALL
USER_CHARGES


@<TRIPOS>ATOM
      1 CA         26.8768   -1.5987    2.7930 C.3       0 UNK        -0.2020 
      2 C          27.4490   -2.6665    1.8727 C.2       0 UNK         0.4855 
      3 O          27.5306   -3.8294    2.2677 O.2       0 UNK        -0.5197 
      4 N          27.8303   -2.2773    0.6471 N.am      1 UNK        -0.4892 
      5 CA         28.4554   -3.1161   -0.3931 C.3       1 UNK         0.0835 
      6 C6         29.8298   -3.7116    0.0292 C.3       12 UNK        -0.0855 
      7 S7         31.0341   -2.4105    0.4689 S.3       12 UNK        -0.2931 
      8 C8         32.1183   -2.3918   -0.9969 C.3       12 UNK         0.0378 
      9 C9         31.3549   -2.1039   -2.2836 C.ar      12 UNK        -0.0802 
     10 C10        31.2668   -3.0785   -3.2832 C.ar      12 UNK        -0.0944 
     11 C11        30.5790   -2.8183   -4.4727 C.ar      12 UNK        -0.0787 
     12 C12        29.9604   -1.5780   -4.6492 C.ar      12 UNK        -0.0862 
     13 C13        30.0508   -0.5931   -3.6626 C.ar      12 UNK        -0.0733 
     14 C14        30.7505   -0.8586   -2.4823 C.ar      12 UNK        -0.0832 
     15 C15        29.4170    0.7655   -3.8944 C.3       12 UNK         0.0240 
     16 S16        27.6649    0.7672   -3.4119 S.3       12 UNK        -0.2522 
     17 C17        27.1438    2.3247   -4.2005 C.3       12 UNK        -0.0967 
     18 CA         26.6350    2.0775   -5.6413 C.3       5 UNK         0.0660 
     19 N          25.3970    1.2799   -5.6497 N.am      5 UNK        -0.4015 
     20 C          24.7486    0.8153   -6.7255 C.2       4 UNK         0.4946 
     21 O          25.0677    1.0873   -7.8831 O.2       4 UNK        -0.5353 
     22 CA         23.5701   -0.1366   -6.4659 C.3       4 UNK         0.0277 
     23 CB         22.6402   -0.2549   -7.6882 C.3       4 UNK        -0.1981 
     24 N          24.0659   -1.4671   -6.1130 N.am      4 UNK        -0.4209 
     25 C          24.5434   -1.8038   -4.9096 C.2       3 UNK         0.4942 
     26 O          24.5663   -1.0357   -3.9428 O.2       3 UNK        -0.5208 
     27 CA         25.1115   -3.2201   -4.7739 C.3       3 UNK         0.0250 
     28 CB         26.5261   -3.3054   -5.3756 C.3       3 UNK        -0.1990 
     29 N          25.1694   -3.5548   -3.3564 N.am      3 UNK        -0.4232 
     30 C          24.9922   -4.7678   -2.8225 C.2       2 UNK         0.4993 
     31 O          24.7687   -5.7833   -3.4849 O.2       2 UNK        -0.5286 
     32 CA         25.0857   -4.8423   -1.2851 C.3       2 UNK         0.0209 
     33 CB         25.1498   -6.2888   -0.7474 C.3       2 UNK        -0.1931 
     34 N          26.1900   -4.0293   -0.7533 N.am      2 UNK        -0.4546 
     35 C          27.5044   -4.1819   -0.9891 C.2       1 UNK         0.5154 
     36 O          27.9712   -5.0943   -1.6730 O.2       1 UNK        -0.5181 
     37 C          26.5951    3.3962   -6.4453 C.2       5 UNK         0.5014 
     38 O          27.6609    3.9263   -6.7619 O.2       5 UNK        -0.5248 
     39 N          25.3990    3.8892   -6.7977 N.am      6 UNK        -0.4434 
     40 CA         25.2049    4.9847   -7.7525 C.3       6 UNK         0.0363 
     41 CB         23.7276    5.4093   -7.7422 C.3       6 UNK        -0.1936 
     42 C          25.6514    4.6261   -9.1856 C.2       6 UNK         0.5081 
     43 O          26.0508    5.5226   -9.9292 O.2       6 UNK        -0.5248 
     44 N          25.5820    3.3359   -9.5415 N.am      7 UNK        -0.4718 
     45 CA         26.0390    2.7816  -10.8160 C.3       7 UNK         0.0273 
     46 CB         24.8897    1.9921  -11.4635 C.3       7 UNK        -0.1935 
     47 C          27.2640    1.8752  -10.6212 C.2       7 UNK         0.5018 
     48 O          28.1883    1.9306  -11.4337 O.2       7 UNK        -0.5186 
     49 N          27.2730    1.0676   -9.5499 N.am      8 UNK        -0.4240 
     50 CA         28.3067    0.0806   -9.2151 C.3       8 UNK         0.0235 
     51 CB         27.7099   -0.9806   -8.2692 C.3       8 UNK        -0.2000 
     52 C          29.6059    0.7012   -8.6598 C.2       8 UNK         0.4941 
     53 O          30.1395    0.2253   -7.6579 O.2       8 UNK        -0.5273 
     54 N          30.1209    1.7324   -9.3401 N.am      9 UNK        -0.4262 
     55 CA         31.4200    2.3540   -9.0650 C.3       9 UNK         0.0264 
     56 CB         31.4766    3.7268   -9.7536 C.3       9 UNK        -0.1955 
     57 C          32.6039    1.4741   -9.5103 C.2       9 UNK         0.5031 
     58 O          33.7101    1.6369   -8.9924 O.2       9 UNK        -0.5390 
     59 N          32.3476    0.5434  -10.4431 N.am      10 UNK        -0.4204 
     60 CA         33.3038   -0.4148  -11.0080 C.3       10 UNK         0.0237 
     61 CB         32.6106   -1.2042  -12.1312 C.3       10 UNK        -0.1985 
     62 C          33.9376   -1.3794   -9.9870 C.2       10 UNK         0.4970 
     63 O          34.9808   -1.9603  -10.2900 O.2       10 UNK        -0.4914 
     64 N          33.3215   -1.5268   -8.8064 N.am      11 UNK        -0.4285 
     65 CA         33.8749   -2.2649   -7.6614 C.3       11 UNK         0.1007 
     66 C          35.1526   -1.6192   -7.0455 C.2       11 UNK         0.5703 
     67 N          35.4420   -0.3446   -7.2904 N.am      11 UNK        -0.7361 
     68 O          35.8966   -2.2917   -6.3357 O.2       11 UNK        -0.4986 
     69 C69        32.8145   -2.4920   -6.5547 C.3       12 UNK        -0.0947 
     70 S70        31.2741   -3.2754   -7.1442 S.3       12 UNK        -0.2240 
     71 C71        30.5375   -3.8653   -5.5803 C.3       12 UNK         0.0194 
     72 H72        27.4830   -1.5189    3.6950 H         1 UNK         0.0906 
     73 H73        26.8494   -0.6190    2.3164 H         1 UNK         0.0906 
     74 H74        25.8611   -1.8613    3.0877 H         1 UNK         0.0906 
     75 H75        27.7313   -1.3027    0.3962 H         1 UNK         0.3140 
     76 H76        28.6455   -2.4419   -1.2297 H         1 UNK         0.1085 
     77 H77        30.2548   -4.3230   -0.7687 H         1 UNK         0.0836 
     78 H78        29.7154   -4.3823    0.8817 H         1 UNK         0.0836 
     79 H79        32.6442   -3.3458   -1.0607 H         1 UNK         0.0731 
     80 H80        32.8861   -1.6293   -0.8589 H         1 UNK         0.0731 
     81 H81        31.7458   -4.0376   -3.1407 H         1 UNK         0.1312 
     82 H82        29.4364   -1.3674   -5.5720 H         1 UNK         0.1406 
     83 H83        30.8226   -0.0997   -1.7148 H         1 UNK         0.1631 
     84 H84        29.5100    1.0317   -4.9489 H         1 UNK         0.0717 
     85 H85        29.9482    1.5367   -3.3345 H         1 UNK         0.0717 
     86 H86        26.3652    2.7870   -3.5910 H         1 UNK         0.0934 
     87 H87        27.9871    3.0191   -4.1853 H         1 UNK         0.0934 
     88 H88        27.3836    1.4718   -6.1549 H         1 UNK         0.0739 
     89 H89        25.1040    0.9223   -4.7471 H         1 UNK         0.3093 
     90 H90        22.9844    0.2654   -5.6360 H         1 UNK         0.0818 
     91 H91        23.1546   -0.6770   -8.5527 H         1 UNK         0.0819 
     92 H92        21.7778   -0.8852   -7.4709 H         1 UNK         0.0819 
     93 H93        22.2590    0.7236   -7.9838 H         1 UNK         0.0819 
     94 H94        24.1083   -2.1437   -6.8619 H         1 UNK         0.3041 
     95 H95        24.4442   -3.9127   -5.2916 H         1 UNK         0.0784 
     96 H96        26.5164   -3.0898   -6.4443 H         1 UNK         0.0793 
     97 H97        27.2049   -2.5944   -4.9027 H         1 UNK         0.0793 
     98 H98        26.9493   -4.3023   -5.2508 H         1 UNK         0.0793 
     99 H99        25.2801   -2.7521   -2.7494 H         1 UNK         0.3024 
    100 H100       24.1634   -4.3970   -0.9083 H         1 UNK         0.1171 
    101 H101       25.2082   -6.3047    0.3410 H         1 UNK         0.0786 
    102 H102       24.2590   -6.8501   -1.0319 H         1 UNK         0.0786 
    103 H103       26.0115   -6.8310   -1.1375 H         1 UNK         0.0786 
    104 H104       25.9219   -3.2479   -0.1711 H         1 UNK         0.2977 
    105 H105       24.5715    3.3996   -6.4910 H         1 UNK         0.3127 
    106 H106       25.8089    5.8324   -7.4215 H         1 UNK         0.0770 
    107 H107       23.0707    4.5957   -8.0528 H         1 UNK         0.0814 
    108 H108       23.5579    6.2429   -8.4252 H         1 UNK         0.0814 
    109 H109       23.4144    5.7366   -6.7506 H         1 UNK         0.0814 
    110 H110       25.2586    2.6588   -8.8545 H         1 UNK         0.2983 
    111 H111       26.3297    3.5825  -11.4995 H         1 UNK         0.0947 
    112 H112       24.5465    1.1775  -10.8239 H         1 UNK         0.0806 
    113 H113       25.2014    1.5549  -12.4131 H         1 UNK         0.0806 
    114 H114       24.0353    2.6373  -11.6688 H         1 UNK         0.0806 
    115 H115       26.4625    1.0849   -8.9321 H         1 UNK         0.3000 
    116 H116       28.5835   -0.4328  -10.1382 H         1 UNK         0.0850 
    117 H117       26.8070   -1.4248   -8.6883 H         1 UNK         0.0810 
    118 H118       27.4563   -0.5625   -7.2958 H         1 UNK         0.0810 
    119 H119       28.4182   -1.7923   -8.0964 H         1 UNK         0.0810 
    120 H120       29.6089    2.0536  -10.1580 H         1 UNK         0.3040 
    121 H121       31.5091    2.5056   -7.9870 H         1 UNK         0.0766 
    122 H122       32.4239    4.2274   -9.5483 H         1 UNK         0.0812 
    123 H123       30.6812    4.3813   -9.3962 H         1 UNK         0.0812 
    124 H124       31.3799    3.6409  -10.8367 H         1 UNK         0.0812 
    125 H125       31.4066    0.4995  -10.8053 H         1 UNK         0.3205 
    126 H126       34.1197    0.1629  -11.4472 H         1 UNK         0.0754 
    127 H127       33.3022   -1.9045  -12.6021 H         1 UNK         0.0769 
    128 H128       32.2427   -0.5419  -12.9153 H         1 UNK         0.0769 
    129 H129       31.7665   -1.7838  -11.7551 H         1 UNK         0.0769 
    130 H130       32.4620   -1.0263   -8.6333 H         1 UNK         0.2981 
    131 H131       34.1764   -3.2464   -8.0319 H         1 UNK         0.0541 
    132 H132       34.8373    0.2257   -7.8700 H         1 UNK         0.3459 
    133 H133       36.2735    0.0566   -6.8873 H         1 UNK         0.3459 
    134 H134       33.2293   -3.1160   -5.7607 H         1 UNK         0.0612 
    135 H135       32.5488   -1.5392   -6.0921 H         1 UNK         0.0612 
    136 H136       29.5019   -4.1533   -5.7638 H         1 UNK         0.0624 
    137 H137       31.0606   -4.7721   -5.2732 H         1 UNK         0.0624 
@<TRIPOS>BOND
     1    1    2 1    
     2    1   72 1    
     3    1   73 1    
     4    1   74 1    
     5    2    3 2    
     6    2    4 am   BACKBONE|DICT|INTERRES
     7    4    5 1    
     8    4   75 1    
     9    5    6 1    
    10    5   35 1    
    11    5   76 1    
    12    6    7 1    
    13    6   77 1    
    14    6   78 1    
    15    7    8 1    
    16    8    9 1    
    17    8   79 1    
    18    8   80 1    
    19    9   10 ar   
    20    9   14 ar   
    21   10   11 ar   
    22   10   81 1    
    23   11   12 ar   
    24   11   71 1    
    25   12   13 ar   
    26   12   82 1    
    27   13   14 ar   
    28   13   15 1    
    29   14   83 1    
    30   15   16 1    
    31   15   84 1    
    32   15   85 1    
    33   16   17 1    
    34   17   18 1    
    35   17   86 1    
    36   17   87 1    
    37   18   19 1    
    38   18   37 1    
    39   18   88 1    
    40   19   20 am   BACKBONE|DICT|INTERRES
    41   19   89 1    
    42   20   21 2    
    43   20   22 1    
    44   22   23 1    
    45   22   24 1    
    46   22   90 1    
    47   23   91 1    
    48   23   92 1    
    49   23   93 1    
    50   24   25 am   BACKBONE|DICT|INTERRES
    51   24   94 1    
    52   25   26 2    
    53   25   27 1    
    54   27   28 1    
    55   27   29 1    
    56   27   95 1    
    57   28   96 1    
    58   28   97 1    
    59   28   98 1    
    60   29   30 am   BACKBONE|DICT|INTERRES
    61   29   99 1    
    62   30   31 2    
    63   30   32 1    
    64   32   33 1    
    65   32   34 1    
    66   32  100 1    
    67   33  101 1    
    68   33  102 1    
    69   33  103 1    
    70   34   35 am   BACKBONE|DICT|INTERRES
    71   34  104 1    
    72   35   36 2    
    73   37   38 2    
    74   37   39 am   BACKBONE|DICT|INTERRES
    75   39   40 1    
    76   39  105 1    
    77   40   41 1    
    78   40   42 1    
    79   40  106 1    
    80   41  107 1    
    81   41  108 1    
    82   41  109 1    
    83   42   43 2    
    84   42   44 am   BACKBONE|DICT|INTERRES
    85   44   45 1    
    86   44  110 1    
    87   45   46 1    
    88   45   47 1    
    89   45  111 1    
    90   46  112 1    
    91   46  113 1    
    92   46  114 1    
    93   47   48 2    
    94   47   49 am   BACKBONE|DICT|INTERRES
    95   49   50 1    
    96   49  115 1    
    97   50   51 1    
    98   50   52 1    
    99   50  116 1    
   100   51  117 1    
   101   51  118 1    
   102   51  119 1    
   103   52   53 2    
   104   52   54 am   BACKBONE|DICT|INTERRES
   105   54   55 1    
   106   54  120 1    
   107   55   56 1    
   108   55   57 1    
   109   55  121 1    
   110   56  122 1    
   111   56  123 1    
   112   56  124 1    
   113   57   58 2    
   114   57   59 am   BACKBONE|DICT|INTERRES
   115   59   60 1    
   116   59  125 1    
   117   60   61 1    
   118   60   62 1    
   119   60  126 1    
   120   61  127 1    
   121   61  128 1    
   122   61  129 1    
   123   62   63 2    
   124   62   64 am   BACKBONE|DICT|INTERRES
   125   64   65 1    
   126   64  130 1    
   127   65   66 1    
   128   65   69 1    
   129   65  131 1    
   130   66   67 am   BACKBONE|DICT|INTERRES
   131   66   68 2    
   132   67  132 1    
   133   67  133 1    
   134   69   70 1    
   135   69  134 1    
   136   69  135 1    
   137   70   71 1    
   138   71  136 1    
   139   71  137 1    
@<TRIPOS>SUBSTRUCTURE
     1 UNK         1 GROUP             0       ****    0 ROOT    
