@<TRIPOS>MOLECULE
3R137
137   139    1
SMALL
USER_CHARGES


@<TRIPOS>ATOM
      1 CA         29.5605   -0.0062    0.9115 C.3       0 UNK        -0.2020 
      2 C          29.0977   -1.0268   -0.1167 C.2       0 UNK         0.4855 
      3 O          28.8744   -0.6704   -1.2732 O.2       0 UNK        -0.5197 
      4 N          28.9566   -2.2934    0.2936 N.am      1 UNK        -0.4892 
      5 CA         28.5094   -3.4027   -0.5536 C.3       1 UNK         0.0835 
      6 C6         28.9947   -4.7816   -0.0287 C.3       12 UNK        -0.0855 
      7 S7         30.8107   -4.8543    0.1901 S.3       12 UNK        -0.2931 
      8 C8         31.3835   -5.6135   -1.3688 C.3       12 UNK         0.0378 
      9 C9         30.9288   -4.8312   -2.5939 C.ar      12 UNK        -0.0802 
     10 C10        31.3291   -3.5053   -2.7756 C.ar      12 UNK        -0.0944 
     11 C11        30.8296   -2.7527   -3.8417 C.ar      12 UNK        -0.0787 
     12 C12        29.9692   -3.3550   -4.7675 C.ar      12 UNK        -0.0862 
     13 C13        29.5821   -4.6965   -4.6159 C.ar      12 UNK        -0.0733 
     14 C14        30.0665   -5.4194   -3.5215 C.ar      12 UNK        -0.0832 
     15 C15        28.6387   -5.4294   -5.5745 C.3       12 UNK         0.0240 
     16 S16        28.0024   -4.4778   -6.9925 S.3       12 UNK        -0.2522 
     17 C17        26.7371   -3.4336   -6.1936 C.3       12 UNK        -0.0967 
     18 CA         26.4097   -2.1899   -7.0531 C.3       5 UNK         0.0660 
     19 N          25.1296   -1.5786   -6.6966 N.am      5 UNK        -0.4015 
     20 C          24.4898   -0.6736   -7.4521 C.2       4 UNK         0.4946 
     21 O          24.8884   -0.2903   -8.5525 O.2       4 UNK        -0.5353 
     22 CA         23.2092   -0.0641   -6.8599 C.3       4 UNK         0.0277 
     23 CB         22.0047   -0.9883   -7.0993 C.3       4 UNK        -0.1981 
     24 N          23.3378    0.2236   -5.4291 N.am      4 UNK        -0.4209 
     25 C          24.1596    1.1539   -4.9225 C.2       3 UNK         0.4942 
     26 O          24.8587    1.8994   -5.6101 O.2       3 UNK        -0.5208 
     27 CA         24.2459    1.2355   -3.3882 C.3       3 UNK         0.0250 
     28 CB         23.0993    2.0920   -2.8273 C.3       3 UNK        -0.1990 
     29 N          24.2662   -0.0697   -2.7111 N.am      3 UNK        -0.4232 
     30 C          25.1948   -1.0144   -2.9139 C.2       2 UNK         0.4993 
     31 O          26.0694   -0.9406   -3.7789 O.2       2 UNK        -0.5286 
     32 CA         25.1474   -2.2632   -2.0310 C.3       2 UNK         0.0209 
     33 CB         24.4199   -3.4185   -2.7413 C.3       2 UNK        -0.1931 
     34 N          26.5329   -2.6265   -1.7567 N.am      2 UNK        -0.4546 
     35 C          26.9788   -3.3331   -0.7150 C.2       1 UNK         0.5154 
     36 O          26.2434   -3.8626    0.1211 O.2       1 UNK        -0.5181 
     37 C          27.5460   -1.1533   -7.0286 C.2       5 UNK         0.5014 
     38 O          28.3397   -1.1207   -7.9650 O.2       5 UNK        -0.5248 
     39 N          27.5816   -0.3007   -5.9950 N.am      6 UNK        -0.4434 
     40 CA         28.5421    0.7935   -5.8490 C.3       6 UNK         0.0363 
     41 CB         28.3170    1.5162   -4.5118 C.3       6 UNK        -0.1936 
     42 C          28.5148    1.7849   -7.0192 C.2       6 UNK         0.5081 
     43 O          29.5809    2.1948   -7.4792 O.2       6 UNK        -0.5248 
     44 N          27.3086    2.1103   -7.5029 N.am      7 UNK        -0.4718 
     45 CA         27.0927    2.9111   -8.7064 C.3       7 UNK         0.0273 
     46 CB         25.6156    3.3289   -8.7879 C.3       7 UNK        -0.1935 
     47 C          27.5319    2.1810   -9.9878 C.2       7 UNK         0.5018 
     48 O          28.2400    2.7746  -10.8013 O.2       7 UNK        -0.5186 
     49 N          27.1117    0.9167  -10.1456 N.am      8 UNK        -0.4240 
     50 CA         27.3895    0.0899  -11.3250 C.3       8 UNK         0.0235 
     51 CB         26.5188   -1.1764  -11.2862 C.3       8 UNK        -0.2000 
     52 C          28.8732   -0.2809  -11.4886 C.2       8 UNK         0.4941 
     53 O          29.4072   -0.1621  -12.5921 O.2       8 UNK        -0.5273 
     54 N          29.5099   -0.7257  -10.3979 N.am      9 UNK        -0.4262 
     55 CA         30.9167   -1.1332  -10.3575 C.3       9 UNK         0.0264 
     56 CB         31.1242   -2.1113   -9.1877 C.3       9 UNK        -0.1955 
     57 C          31.8868    0.0535  -10.2339 C.2       9 UNK         0.5031 
     58 O          33.0840   -0.1407  -10.4497 O.2       9 UNK        -0.5390 
     59 N          31.3656    1.2391   -9.8810 N.am      10 UNK        -0.4204 
     60 CA         32.0873    2.4841   -9.6027 C.3       10 UNK         0.0237 
     61 CB         32.7798    3.0254  -10.8724 C.3       10 UNK        -0.1985 
     62 C          33.0392    2.3282   -8.4021 C.2       10 UNK         0.4970 
     63 O          34.2415    2.5710   -8.5270 O.2       10 UNK        -0.4914 
     64 N          32.4747    1.9163   -7.2584 N.am      11 UNK        -0.4285 
     65 CA         33.1958    1.7805   -5.9805 C.3       11 UNK         0.1007 
     66 C          33.6582    3.1344   -5.3627 C.2       11 UNK         0.5703 
     67 N          33.0891    4.2719   -5.7465 N.am      11 UNK        -0.7361 
     68 O          34.5539    3.1504   -4.5218 O.2       11 UNK        -0.4986 
     69 C69        32.3916    0.9671   -4.9326 C.3       12 UNK        -0.0947 
     70 S70        32.1246   -0.7838   -5.3710 S.3       12 UNK        -0.2240 
     71 C71        31.1384   -1.2641   -3.9168 C.3       12 UNK         0.0194 
     72 H72        30.4913    0.4571    0.5852 H         1 UNK         0.0906 
     73 H73        28.8114    0.7769    1.0250 H         1 UNK         0.0906 
     74 H74        29.7307   -0.4584    1.8885 H         1 UNK         0.0906 
     75 H75        29.1483   -2.5334    1.2558 H         1 UNK         0.3140 
     76 H76        28.9363   -3.2646   -1.5470 H         1 UNK         0.1085 
     77 H77        28.5367   -5.0065    0.9363 H         1 UNK         0.0836 
     78 H78        28.6814   -5.5800   -0.7040 H         1 UNK         0.0836 
     79 H79        32.4733   -5.6609   -1.3604 H         1 UNK         0.0731 
     80 H80        31.0315   -6.6456   -1.4093 H         1 UNK         0.0731 
     81 H81        31.9768   -3.0424   -2.0434 H         1 UNK         0.1312 
     82 H82        29.5967   -2.7606   -5.5888 H         1 UNK         0.1406 
     83 H83        29.7570   -6.4471   -3.3845 H         1 UNK         0.1631 
     84 H84        27.7897   -5.8219   -5.0124 H         1 UNK         0.0717 
     85 H85        29.1674   -6.2959   -5.9742 H         1 UNK         0.0717 
     86 H86        25.8446   -4.0488   -6.0694 H         1 UNK         0.0934 
     87 H87        27.0539   -3.1509   -5.1875 H         1 UNK         0.0934 
     88 H88        26.3059   -2.5246   -8.0878 H         1 UNK         0.0739 
     89 H89        24.7684   -1.7853   -5.7779 H         1 UNK         0.3093 
     90 H90        23.0236    0.8795   -7.3782 H         1 UNK         0.0818 
     91 H91        21.0776   -0.5278   -6.7573 H         1 UNK         0.0819 
     92 H92        21.8844   -1.2021   -8.1624 H         1 UNK         0.0819 
     93 H93        22.1148   -1.9441   -6.5855 H         1 UNK         0.0819 
     94 H94        22.7915   -0.3366   -4.7910 H         1 UNK         0.3041 
     95 H95        25.1867    1.7352   -3.1480 H         1 UNK         0.0784 
     96 H96        23.0754    3.0728   -3.3049 H         1 UNK         0.0793 
     97 H97        22.1267    1.6263   -2.9907 H         1 UNK         0.0793 
     98 H98        23.2162    2.2598   -1.7564 H         1 UNK         0.0793 
     99 H99        23.5693   -0.2152   -1.9943 H         1 UNK         0.3024 
    100 H100       24.6431   -2.0244   -1.0918 H         1 UNK         0.1171 
    101 H101       23.3916   -3.1458   -2.9820 H         1 UNK         0.0786 
    102 H102       24.3788   -4.3071   -2.1113 H         1 UNK         0.0786 
    103 H103       24.9143   -3.6947   -3.6729 H         1 UNK         0.0786 
    104 H104       27.2026   -2.1416   -2.3456 H         1 UNK         0.2977 
    105 H105       26.9225   -0.4350   -5.2271 H         1 UNK         0.3127 
    106 H106       29.5324    0.3432   -5.8440 H         1 UNK         0.0770 
    107 H107       27.3403    1.9984   -4.4753 H         1 UNK         0.0814 
    108 H108       29.0683    2.2909   -4.3549 H         1 UNK         0.0814 
    109 H109       28.3772    0.8278   -3.6686 H         1 UNK         0.0814 
    110 H110       26.4845    1.7610   -7.0253 H         1 UNK         0.2983 
    111 H111       27.6969    3.8170   -8.6189 H         1 UNK         0.0947 
    112 H112       25.4315    3.9441   -9.6697 H         1 UNK         0.0806 
    113 H113       25.3221    3.9141   -7.9161 H         1 UNK         0.0806 
    114 H114       24.9517    2.4657   -8.8462 H         1 UNK         0.0806 
    115 H115       26.5073    0.5094   -9.4373 H         1 UNK         0.3000 
    116 H116       27.0994    0.6681  -12.2050 H         1 UNK         0.0850 
    117 H117       26.6919   -1.7983  -12.1655 H         1 UNK         0.0810 
    118 H118       25.4576   -0.9272  -11.2689 H         1 UNK         0.0810 
    119 H119       26.7326   -1.7854  -10.4072 H         1 UNK         0.0810 
    120 H120       28.9925   -0.8152   -9.5199 H         1 UNK         0.3040 
    121 H121       31.1546   -1.6581  -11.2851 H         1 UNK         0.0766 
    122 H122       30.9613   -1.6270   -8.2239 H         1 UNK         0.0812 
    123 H123       30.4450   -2.9617   -9.2520 H         1 UNK         0.0812 
    124 H124       32.1410   -2.5058   -9.1832 H         1 UNK         0.0812 
    125 H125       30.3707    1.2709   -9.7015 H         1 UNK         0.3205 
    126 H126       31.3339    3.2164   -9.3086 H         1 UNK         0.0754 
    127 H127       33.2259    4.0027  -10.6843 H         1 UNK         0.0769 
    128 H128       32.0679    3.1456  -11.6891 H         1 UNK         0.0769 
    129 H129       33.5774    2.3669  -11.2172 H         1 UNK         0.0769 
    130 H130       31.4670    1.7911   -7.2352 H         1 UNK         0.2981 
    131 H131       34.1111    1.2235   -6.1899 H         1 UNK         0.0541 
    132 H132       32.3472    4.2693   -6.4275 H         1 UNK         0.3459 
    133 H133       33.4009    5.1404   -5.3415 H         1 UNK         0.3459 
    134 H134       31.4250    1.4399   -4.7530 H         1 UNK         0.0612 
    135 H135       32.9118    0.9707   -3.9725 H         1 UNK         0.0612 
    136 H136       31.6666   -0.9450   -3.0169 H         1 UNK         0.0624 
    137 H137       30.1967   -0.7175   -3.9146 H         1 UNK         0.0624 
@<TRIPOS>BOND
     1    1    2 1    
     2    1   72 1    
     3    1   73 1    
     4    1   74 1    
     5    2    3 2    
     6    2    4 am   BACKBONE|DICT|INTERRES
     7    4    5 1    
     8    4   75 1    
     9    5    6 1    
    10    5   35 1    
    11    5   76 1    
    12    6    7 1    
    13    6   77 1    
    14    6   78 1    
    15    7    8 1    
    16    8    9 1    
    17    8   79 1    
    18    8   80 1    
    19    9   10 ar   
    20    9   14 ar   
    21   10   11 ar   
    22   10   81 1    
    23   11   12 ar   
    24   11   71 1    
    25   12   13 ar   
    26   12   82 1    
    27   13   14 ar   
    28   13   15 1    
    29   14   83 1    
    30   15   16 1    
    31   15   84 1    
    32   15   85 1    
    33   16   17 1    
    34   17   18 1    
    35   17   86 1    
    36   17   87 1    
    37   18   19 1    
    38   18   37 1    
    39   18   88 1    
    40   19   20 am   BACKBONE|DICT|INTERRES
    41   19   89 1    
    42   20   21 2    
    43   20   22 1    
    44   22   23 1    
    45   22   24 1    
    46   22   90 1    
    47   23   91 1    
    48   23   92 1    
    49   23   93 1    
    50   24   25 am   BACKBONE|DICT|INTERRES
    51   24   94 1    
    52   25   26 2    
    53   25   27 1    
    54   27   28 1    
    55   27   29 1    
    56   27   95 1    
    57   28   96 1    
    58   28   97 1    
    59   28   98 1    
    60   29   30 am   BACKBONE|DICT|INTERRES
    61   29   99 1    
    62   30   31 2    
    63   30   32 1    
    64   32   33 1    
    65   32   34 1    
    66   32  100 1    
    67   33  101 1    
    68   33  102 1    
    69   33  103 1    
    70   34   35 am   BACKBONE|DICT|INTERRES
    71   34  104 1    
    72   35   36 2    
    73   37   38 2    
    74   37   39 am   BACKBONE|DICT|INTERRES
    75   39   40 1    
    76   39  105 1    
    77   40   41 1    
    78   40   42 1    
    79   40  106 1    
    80   41  107 1    
    81   41  108 1    
    82   41  109 1    
    83   42   43 2    
    84   42   44 am   BACKBONE|DICT|INTERRES
    85   44   45 1    
    86   44  110 1    
    87   45   46 1    
    88   45   47 1    
    89   45  111 1    
    90   46  112 1    
    91   46  113 1    
    92   46  114 1    
    93   47   48 2    
    94   47   49 am   BACKBONE|DICT|INTERRES
    95   49   50 1    
    96   49  115 1    
    97   50   51 1    
    98   50   52 1    
    99   50  116 1    
   100   51  117 1    
   101   51  118 1    
   102   51  119 1    
   103   52   53 2    
   104   52   54 am   BACKBONE|DICT|INTERRES
   105   54   55 1    
   106   54  120 1    
   107   55   56 1    
   108   55   57 1    
   109   55  121 1    
   110   56  122 1    
   111   56  123 1    
   112   56  124 1    
   113   57   58 2    
   114   57   59 am   BACKBONE|DICT|INTERRES
   115   59   60 1    
   116   59  125 1    
   117   60   61 1    
   118   60   62 1    
   119   60  126 1    
   120   61  127 1    
   121   61  128 1    
   122   61  129 1    
   123   62   63 2    
   124   62   64 am   BACKBONE|DICT|INTERRES
   125   64   65 1    
   126   64  130 1    
   127   65   66 1    
   128   65   69 1    
   129   65  131 1    
   130   66   67 am   BACKBONE|DICT|INTERRES
   131   66   68 2    
   132   67  132 1    
   133   67  133 1    
   134   69   70 1    
   135   69  134 1    
   136   69  135 1    
   137   70   71 1    
   138   71  136 1    
   139   71  137 1    
@<TRIPOS>SUBSTRUCTURE
     1 UNK         1 GROUP             0       ****    0 ROOT    
