@<TRIPOS>MOLECULE
3R137
137   139    1
SMALL
USER_CHARGES


@<TRIPOS>ATOM
      1 CA         29.3502    2.0804   -1.2126 C.3       0 UNK        -0.2020 
      2 C          28.3724    0.9229   -1.3432 C.2       0 UNK         0.4855 
      3 O          27.2758    1.1053   -1.8761 O.2       0 UNK        -0.5197 
      4 N          28.7656   -0.2713   -0.8771 N.am      1 UNK        -0.4892 
      5 CA         27.9703   -1.5042   -0.9334 C.3       1 UNK         0.0835 
      6 C6         28.7584   -2.7448   -0.4536 C.3       12 UNK        -0.0855 
      7 S7         30.1781   -3.0749   -1.5497 S.3       12 UNK        -0.2931 
      8 C8         29.4044   -4.1856   -2.7803 C.3       12 UNK         0.0378 
      9 C9         30.0789   -4.2423   -4.1545 C.ar      12 UNK        -0.0802 
     10 C10        31.2816   -3.5856   -4.4511 C.ar      12 UNK        -0.0944 
     11 C11        31.8512   -3.6588   -5.7304 C.ar      12 UNK        -0.0787 
     12 C12        31.2017   -4.4092   -6.7167 C.ar      12 UNK        -0.0862 
     13 C13        30.0113   -5.0859   -6.4356 C.ar      12 UNK        -0.0733 
     14 C14        29.4582   -4.9941   -5.1558 C.ar      12 UNK        -0.0832 
     15 C15        29.3545   -5.9649   -7.4941 C.3       12 UNK         0.0240 
     16 S16        28.3814   -5.0186   -8.7087 S.3       12 UNK        -0.2522 
     17 C17        26.9487   -4.4705   -7.7152 C.3       12 UNK        -0.0967 
     18 CA         26.4604   -3.0451   -8.0877 C.3       5 UNK         0.0660 
     19 N          25.1591   -2.6968   -7.5027 N.am      5 UNK        -0.4015 
     20 C          24.8390   -2.6321   -6.2031 C.2       4 UNK         0.4946 
     21 O          25.5937   -2.9610   -5.2827 O.2       4 UNK        -0.5353 
     22 CA         23.4544   -2.0519   -5.8727 C.3       4 UNK         0.0277 
     23 CB         22.5137   -3.1558   -5.3644 C.3       4 UNK        -0.1981 
     24 N          23.5359   -0.9891   -4.8681 N.am      4 UNK        -0.4209 
     25 C          24.2900    0.1164   -4.9402 C.2       3 UNK         0.4942 
     26 O          24.9909    0.4035   -5.9113 O.2       3 UNK        -0.5208 
     27 CA         24.2868    1.0535   -3.7184 C.3       3 UNK         0.0250 
     28 CB         23.0546    1.9784   -3.7208 C.3       3 UNK        -0.1990 
     29 N          24.4591    0.3605   -2.4320 N.am      3 UNK        -0.4232 
     30 C          23.6275   -0.4956   -1.8117 C.2       2 UNK         0.4993 
     31 O          22.5048   -0.7820   -2.2313 O.2       2 UNK        -0.5286 
     32 CA         24.1877   -1.2171   -0.5731 C.3       2 UNK         0.0209 
     33 CB         23.3435   -2.4343   -0.1487 C.3       2 UNK        -0.1931 
     34 N          25.5451   -1.6533   -0.8902 N.am      2 UNK        -0.4546 
     35 C          26.6349   -1.3425   -0.1836 C.2       1 UNK         0.5154 
     36 O          26.6174   -0.8950    0.9657 O.2       1 UNK        -0.5181 
     37 C          27.5266   -1.9603   -7.8249 C.2       5 UNK         0.5014 
     38 O          28.1071   -1.4470   -8.7812 O.2       5 UNK        -0.5248 
     39 N          27.7494   -1.6154   -6.5512 N.am      6 UNK        -0.4434 
     40 CA         28.7874   -0.7011   -6.0774 C.3       6 UNK         0.0363 
     41 CB         28.7087   -0.5842   -4.5519 C.3       6 UNK        -0.1936 
     42 C          28.7672    0.6920   -6.7244 C.2       6 UNK         0.5081 
     43 O          29.8352    1.2080   -7.0528 O.2       6 UNK        -0.5248 
     44 N          27.5738    1.2686   -6.9260 N.am      7 UNK        -0.4718 
     45 CA         27.4040    2.5700   -7.5806 C.3       7 UNK         0.0273 
     46 CB         25.9815    3.0952   -7.3317 C.3       7 UNK        -0.1935 
     47 C          27.7094    2.5342   -9.0881 C.2       7 UNK         0.5018 
     48 O          28.1919    3.5315   -9.6247 O.2       7 UNK        -0.5186 
     49 N          27.4418    1.3934   -9.7395 N.am      8 UNK        -0.4240 
     50 CA         27.7450    1.1596  -11.1539 C.3       8 UNK         0.0235 
     51 CB         26.8542    0.0305  -11.6981 C.3       8 UNK        -0.2000 
     52 C          29.2322    0.8374  -11.3652 C.2       8 UNK         0.4941 
     53 O          29.8317    1.3322  -12.3200 O.2       8 UNK        -0.5273 
     54 N          29.8039    0.0370  -10.4550 N.am      9 UNK        -0.4262 
     55 CA         31.2223   -0.3254  -10.4161 C.3       9 UNK         0.0264 
     56 CB         31.3996   -1.5187   -9.4609 C.3       9 UNK        -0.1955 
     57 C          32.1479    0.8329   -9.9967 C.2       9 UNK         0.5031 
     58 O          33.3520    0.7445  -10.2409 O.2       9 UNK        -0.5390 
     59 N          31.5809    1.8695   -9.3587 N.am      10 UNK        -0.4204 
     60 CA         32.2518    3.0077   -8.7177 C.3       10 UNK         0.0237 
     61 CB         32.9914    3.8838   -9.7514 C.3       10 UNK        -0.1985 
     62 C          33.1439    2.5454   -7.5494 C.2       10 UNK         0.4970 
     63 O          34.2955    2.9688   -7.4339 O.2       10 UNK        -0.4914 
     64 N          32.5852    1.6546   -6.7218 N.am      11 UNK        -0.4285 
     65 CA         33.2579    0.9954   -5.5948 C.3       11 UNK         0.1007 
     66 C          33.4320    1.8865   -4.3301 C.2       11 UNK         0.5703 
     67 N          32.7791    3.0394   -4.2356 N.am      11 UNK        -0.7361 
     68 O          34.1812    1.5325   -3.4233 O.2       11 UNK        -0.4986 
     69 C69        32.5681   -0.3584   -5.2639 C.3       12 UNK        -0.0947 
     70 S70        33.7608   -1.6939   -4.9269 S.3       12 UNK        -0.2240 
     71 C71        33.1872   -2.9931   -6.0799 C.3       12 UNK         0.0194 
     72 H72        29.5961    2.4744   -2.1985 H         1 UNK         0.0906 
     73 H73        28.9043    2.8829   -0.6258 H         1 UNK         0.0906 
     74 H74        30.2780    1.7787   -0.7271 H         1 UNK         0.0906 
     75 H75        29.6745   -0.3645   -0.4467 H         1 UNK         0.3140 
     76 H76        27.7297   -1.6577   -1.9867 H         1 UNK         0.1085 
     77 H77        29.1245   -2.5978    0.5644 H         1 UNK         0.0836 
     78 H78        28.1210   -3.6310   -0.4220 H         1 UNK         0.0836 
     79 H79        29.3686   -5.1919   -2.3605 H         1 UNK         0.0731 
     80 H80        28.3690   -3.8760   -2.9298 H         1 UNK         0.0731 
     81 H81        31.7841   -3.0226   -3.6807 H         1 UNK         0.1312 
     82 H82        31.6360   -4.4877   -7.7043 H         1 UNK         0.1406 
     83 H83        28.5410   -5.5222   -4.9317 H         1 UNK         0.1631 
     84 H84        28.7144   -6.7164   -7.0291 H         1 UNK         0.0717 
     85 H85        30.1277   -6.5198   -8.0275 H         1 UNK         0.0717 
     86 H86        26.1435   -5.1888   -7.8763 H         1 UNK         0.0934 
     87 H87        27.1868   -4.5276   -6.6541 H         1 UNK         0.0934 
     88 H88        26.2869   -3.0408   -9.1654 H         1 UNK         0.0739 
     89 H89        24.4703   -2.3804   -8.1709 H         1 UNK         0.3093 
     90 H90        23.0234   -1.6136   -6.7750 H         1 UNK         0.0818 
     91 H91        21.5134   -2.7679   -5.1710 H         1 UNK         0.0819 
     92 H92        22.4146   -3.9558   -6.0994 H         1 UNK         0.0819 
     93 H93        22.8831   -3.6043   -4.4409 H         1 UNK         0.0819 
     94 H94        23.0063   -1.1222   -4.0103 H         1 UNK         0.3041 
     95 H95        25.1680    1.6897   -3.8195 H         1 UNK         0.0784 
     96 H96        23.0108    2.5603   -4.6425 H         1 UNK         0.0793 
     97 H97        22.1204    1.4211   -3.6471 H         1 UNK         0.0793 
     98 H98        23.0897    2.6858   -2.8924 H         1 UNK         0.0793 
     99 H99        25.3780    0.5069   -2.0201 H         1 UNK         0.3024 
    100 H100       24.1919   -0.4903    0.2429 H         1 UNK         0.1171 
    101 H101       23.2702   -3.1732   -0.9477 H         1 UNK         0.0786 
    102 H102       22.3286   -2.1339    0.1150 H         1 UNK         0.0786 
    103 H103       23.7722   -2.9264    0.7244 H         1 UNK         0.0786 
    104 H104       25.6634   -2.0297   -1.8215 H         1 UNK         0.2977 
    105 H105       27.1681   -2.0650   -5.8481 H         1 UNK         0.3127 
    106 H106       29.7410   -1.1641   -6.3324 H         1 UNK         0.0770 
    107 H107       29.4441    0.1256   -4.1714 H         1 UNK         0.0814 
    108 H108       28.9114   -1.5419   -4.0759 H         1 UNK         0.0814 
    109 H109       27.7245   -0.2435   -4.2282 H         1 UNK         0.0814 
    110 H110       26.7281    0.7993   -6.6077 H         1 UNK         0.2983 
    111 H111       28.1065    3.2704   -7.1230 H         1 UNK         0.0947 
    112 H112       25.8469    4.0838   -7.7728 H         1 UNK         0.0806 
    113 H113       25.7727    3.1846   -6.2655 H         1 UNK         0.0806 
    114 H114       25.2271    2.4381   -7.7662 H         1 UNK         0.0806 
    115 H115       27.1112    0.6016   -9.2045 H         1 UNK         0.3000 
    116 H116       27.5168    2.0687  -11.7151 H         1 UNK         0.0850 
    117 H117       25.7970    0.2738  -11.5917 H         1 UNK         0.0810 
    118 H118       27.0338   -0.9156  -11.1865 H         1 UNK         0.0810 
    119 H119       27.0428   -0.1343  -12.7598 H         1 UNK         0.0810 
    120 H120       29.2074   -0.3927   -9.7479 H         1 UNK         0.3040 
    121 H121       31.5205   -0.6382  -11.4188 H         1 UNK         0.0766 
    122 H122       32.4382   -1.8508   -9.4377 H         1 UNK         0.0812 
    123 H123       30.7929   -2.3704   -9.7700 H         1 UNK         0.0812 
    124 H124       31.1144   -1.2619   -8.4402 H         1 UNK         0.0812 
    125 H125       30.5924    1.7884   -9.1575 H         1 UNK         0.3205 
    126 H126       31.4611    3.6166   -8.2764 H         1 UNK         0.0754 
    127 H127       33.3787    4.7909   -9.2858 H         1 UNK         0.0769 
    128 H128       32.3249    4.1919  -10.5570 H         1 UNK         0.0769 
    129 H129       33.8386    3.3624  -10.1977 H         1 UNK         0.0769 
    130 H130       31.6062    1.4115   -6.8652 H         1 UNK         0.2981 
    131 H131       34.2715    0.7830   -5.9405 H         1 UNK         0.0541 
    132 H132       32.1659    3.3405   -4.9752 H         1 UNK         0.3459 
    133 H133       32.9063    3.6130   -3.4171 H         1 UNK         0.3459 
    134 H134       31.9530   -0.6789   -6.1042 H         1 UNK         0.0612 
    135 H135       31.8812   -0.2739   -4.4200 H         1 UNK         0.0612 
    136 H136       33.1373   -2.5671   -7.0829 H         1 UNK         0.0624 
    137 H137       33.9515   -3.7702   -6.1151 H         1 UNK         0.0624 
@<TRIPOS>BOND
     1    1    2 1    
     2    1   72 1    
     3    1   73 1    
     4    1   74 1    
     5    2    3 2    
     6    2    4 am   BACKBONE|DICT|INTERRES
     7    4    5 1    
     8    4   75 1    
     9    5    6 1    
    10    5   35 1    
    11    5   76 1    
    12    6    7 1    
    13    6   77 1    
    14    6   78 1    
    15    7    8 1    
    16    8    9 1    
    17    8   79 1    
    18    8   80 1    
    19    9   10 ar   
    20    9   14 ar   
    21   10   11 ar   
    22   10   81 1    
    23   11   12 ar   
    24   11   71 1    
    25   12   13 ar   
    26   12   82 1    
    27   13   14 ar   
    28   13   15 1    
    29   14   83 1    
    30   15   16 1    
    31   15   84 1    
    32   15   85 1    
    33   16   17 1    
    34   17   18 1    
    35   17   86 1    
    36   17   87 1    
    37   18   19 1    
    38   18   37 1    
    39   18   88 1    
    40   19   20 am   BACKBONE|DICT|INTERRES
    41   19   89 1    
    42   20   21 2    
    43   20   22 1    
    44   22   23 1    
    45   22   24 1    
    46   22   90 1    
    47   23   91 1    
    48   23   92 1    
    49   23   93 1    
    50   24   25 am   BACKBONE|DICT|INTERRES
    51   24   94 1    
    52   25   26 2    
    53   25   27 1    
    54   27   28 1    
    55   27   29 1    
    56   27   95 1    
    57   28   96 1    
    58   28   97 1    
    59   28   98 1    
    60   29   30 am   BACKBONE|DICT|INTERRES
    61   29   99 1    
    62   30   31 2    
    63   30   32 1    
    64   32   33 1    
    65   32   34 1    
    66   32  100 1    
    67   33  101 1    
    68   33  102 1    
    69   33  103 1    
    70   34   35 am   BACKBONE|DICT|INTERRES
    71   34  104 1    
    72   35   36 2    
    73   37   38 2    
    74   37   39 am   BACKBONE|DICT|INTERRES
    75   39   40 1    
    76   39  105 1    
    77   40   41 1    
    78   40   42 1    
    79   40  106 1    
    80   41  107 1    
    81   41  108 1    
    82   41  109 1    
    83   42   43 2    
    84   42   44 am   BACKBONE|DICT|INTERRES
    85   44   45 1    
    86   44  110 1    
    87   45   46 1    
    88   45   47 1    
    89   45  111 1    
    90   46  112 1    
    91   46  113 1    
    92   46  114 1    
    93   47   48 2    
    94   47   49 am   BACKBONE|DICT|INTERRES
    95   49   50 1    
    96   49  115 1    
    97   50   51 1    
    98   50   52 1    
    99   50  116 1    
   100   51  117 1    
   101   51  118 1    
   102   51  119 1    
   103   52   53 2    
   104   52   54 am   BACKBONE|DICT|INTERRES
   105   54   55 1    
   106   54  120 1    
   107   55   56 1    
   108   55   57 1    
   109   55  121 1    
   110   56  122 1    
   111   56  123 1    
   112   56  124 1    
   113   57   58 2    
   114   57   59 am   BACKBONE|DICT|INTERRES
   115   59   60 1    
   116   59  125 1    
   117   60   61 1    
   118   60   62 1    
   119   60  126 1    
   120   61  127 1    
   121   61  128 1    
   122   61  129 1    
   123   62   63 2    
   124   62   64 am   BACKBONE|DICT|INTERRES
   125   64   65 1    
   126   64  130 1    
   127   65   66 1    
   128   65   69 1    
   129   65  131 1    
   130   66   67 am   BACKBONE|DICT|INTERRES
   131   66   68 2    
   132   67  132 1    
   133   67  133 1    
   134   69   70 1    
   135   69  134 1    
   136   69  135 1    
   137   70   71 1    
   138   71  136 1    
   139   71  137 1    
@<TRIPOS>SUBSTRUCTURE
     1 UNK         1 GROUP             0       ****    0 ROOT    
