@<TRIPOS>MOLECULE
3R137
137   139    1
SMALL
USER_CHARGES


@<TRIPOS>ATOM
      1 CA         28.0407   -5.2410   -3.7369 C.3       0 UNK        -0.2020 
      2 C          27.0119   -4.2099   -3.2971 C.2       0 UNK         0.4855 
      3 O          25.8213   -4.3821   -3.5594 O.2       0 UNK        -0.5197 
      4 N          27.4731   -3.1423   -2.6331 N.am      1 UNK        -0.4892 
      5 CA         26.7107   -1.9943   -2.1292 C.3       1 UNK         0.0835 
      6 C6         27.6483   -1.0081   -1.3806 C.3       12 UNK        -0.0855 
      7 S7         28.3031   -1.6223    0.2079 S.3       12 UNK        -0.2931 
      8 C8         29.6247   -2.8057   -0.2435 C.3       12 UNK         0.0378 
      9 C9         30.7065   -2.3020   -1.2025 C.ar      12 UNK        -0.0802 
     10 C10        31.3777   -3.2380   -1.9973 C.ar      12 UNK        -0.0944 
     11 C11        32.4336   -2.8534   -2.8285 C.ar      12 UNK        -0.0787 
     12 C12        32.8119   -1.5087   -2.8753 C.ar      12 UNK        -0.0862 
     13 C13        32.1557   -0.5571   -2.0864 C.ar      12 UNK        -0.0733 
     14 C14        31.1067   -0.9592   -1.2509 C.ar      12 UNK        -0.0832 
     15 C15        32.6473    0.8851   -2.0753 C.3       12 UNK         0.0240 
     16 S16        32.2964    1.7643   -3.6312 S.3       12 UNK        -0.2522 
     17 C17        30.6236    2.4359   -3.3382 C.3       12 UNK        -0.0967 
     18 CA         29.7058    2.2765   -4.5759 C.3       5 UNK         0.0660 
     19 N          29.5809    0.8649   -4.9392 N.am      5 UNK        -0.4015 
     20 C          28.8154    0.3049   -5.8800 C.2       4 UNK         0.4946 
     21 O          27.9469    0.9074   -6.5159 O.2       4 UNK        -0.5353 
     22 CA         29.0529   -1.1889   -6.1411 C.3       4 UNK         0.0277 
     23 CB         29.7661   -1.9103   -4.9761 C.3       4 UNK        -0.1981 
     24 N          27.7699   -1.8081   -6.4271 N.am      4 UNK        -0.4209 
     25 C          27.5440   -3.0137   -6.9619 C.2       3 UNK         0.4942 
     26 O          28.4377   -3.8024   -7.2749 O.2       3 UNK        -0.5208 
     27 CA         26.0657   -3.4149   -7.1573 C.3       3 UNK         0.0250 
     28 CB         25.8691   -4.9410   -7.2175 C.3       3 UNK        -0.1990 
     29 N          25.2097   -2.8659   -6.1020 N.am      3 UNK        -0.4232 
     30 C          24.7023   -1.6256   -6.0927 C.2       2 UNK         0.4993 
     31 O          24.8444   -0.8260   -7.0171 O.2       2 UNK        -0.5286 
     32 CA         24.0304   -1.1688   -4.7874 C.3       2 UNK         0.0209 
     33 CB         22.5676   -1.6339   -4.7305 C.3       2 UNK        -0.1931 
     34 N          24.7543   -1.6468   -3.6020 N.am      2 UNK        -0.4546 
     35 C          25.9990   -1.2623   -3.2851 C.2       1 UNK         0.5154 
     36 O          26.6027   -0.3784   -3.8926 O.2       1 UNK        -0.5181 
     37 C          28.3933    3.0655   -4.3661 C.2       5 UNK         0.5014 
     38 O          28.4236    4.2863   -4.5325 O.2       5 UNK        -0.5248 
     39 N          27.2850    2.4093   -3.9892 N.am      6 UNK        -0.4434 
     40 CA         26.0183    3.0873   -3.6991 C.3       6 UNK         0.0363 
     41 CB         25.2072    2.2836   -2.6697 C.3       6 UNK        -0.1936 
     42 C          25.1703    3.3879   -4.9477 C.2       6 UNK         0.5081 
     43 O          24.2808    4.2345   -4.8447 O.2       6 UNK        -0.5248 
     44 N          25.4250    2.7278   -6.0895 N.am      7 UNK        -0.4718 
     45 CA         24.6865    2.9871   -7.3322 C.3       7 UNK         0.0273 
     46 CB         23.3085    2.2954   -7.3296 C.3       7 UNK        -0.1935 
     47 C          25.4965    2.6513   -8.5891 C.2       7 UNK         0.5018 
     48 O          25.6963    3.5385   -9.4199 O.2       7 UNK        -0.5186 
     49 N          25.9422    1.3939   -8.7258 N.am      8 UNK        -0.4240 
     50 CA         26.6938    0.9111   -9.8956 C.3       8 UNK         0.0235 
     51 CB         26.7832   -0.6208   -9.8474 C.3       8 UNK        -0.2000 
     52 C          28.1043    1.5145  -10.0500 C.2       8 UNK         0.4941 
     53 O          28.6593    1.4699  -11.1495 O.2       8 UNK        -0.5273 
     54 N          28.6670    2.0371   -8.9527 N.am      9 UNK        -0.4262 
     55 CA         29.9979    2.6281   -8.7769 C.3       9 UNK         0.0264 
     56 CB         30.2523    3.8071   -9.7369 C.3       9 UNK        -0.1955 
     57 C          31.1217    1.5830   -8.8311 C.2       9 UNK         0.5031 
     58 O          31.8818    1.4674   -7.8696 O.2       9 UNK        -0.5390 
     59 N          31.1927    0.8238   -9.9300 N.am      10 UNK        -0.4204 
     60 CA         32.0842   -0.3231  -10.0870 C.3       10 UNK         0.0237 
     61 CB         32.2308   -0.6550  -11.5811 C.3       10 UNK        -0.1985 
     62 C          31.5191   -1.5200   -9.3091 C.2       10 UNK         0.4970 
     63 O          30.3690   -1.8943   -9.5442 O.2       10 UNK        -0.4914 
     64 N          32.3242   -2.0790   -8.3977 N.am      11 UNK        -0.4285 
     65 CA         31.9730   -3.2448   -7.5773 C.3       11 UNK         0.1007 
     66 C          31.8692   -4.5365   -8.4319 C.2       11 UNK         0.5703 
     67 N          30.6997   -5.1593   -8.4816 N.am      11 UNK        -0.7361 
     68 O          32.8470   -4.9790   -9.0322 O.2       11 UNK        -0.4986 
     69 C69        32.9457   -3.3850   -6.3762 C.3       12 UNK        -0.0947 
     70 S70        32.3130   -4.5007   -5.0783 S.3       12 UNK        -0.2240 
     71 C71        33.2087   -3.9090   -3.6083 C.3       12 UNK         0.0194 
     72 H72        29.0284   -5.0363   -3.3247 H         1 UNK         0.0906 
     73 H73        27.7385   -6.2358   -3.4111 H         1 UNK         0.0906 
     74 H74        28.1270   -5.2497   -4.8227 H         1 UNK         0.0906 
     75 H75        28.4663   -3.0741   -2.4709 H         1 UNK         0.3140 
     76 H76        25.9519   -2.3586   -1.4338 H         1 UNK         0.1085 
     77 H77        28.4736   -0.6896   -2.0182 H         1 UNK         0.0836 
     78 H78        27.1048   -0.0919   -1.1402 H         1 UNK         0.0836 
     79 H79        29.1611   -3.7123   -0.6331 H         1 UNK         0.0731 
     80 H80        30.1208   -3.1095    0.6792 H         1 UNK         0.0731 
     81 H81        31.1047   -4.2833   -1.9450 H         1 UNK         0.1312 
     82 H82        33.6396   -1.2041   -3.5014 H         1 UNK         0.1406 
     83 H83        30.6242   -0.2309   -0.6137 H         1 UNK         0.1631 
     84 H84        33.7272    0.8822   -1.9207 H         1 UNK         0.0717 
     85 H85        32.2286    1.4402   -1.2343 H         1 UNK         0.0717 
     86 H86        30.1751    1.9492   -2.4696 H         1 UNK         0.0934 
     87 H87        30.7384    3.4890   -3.0723 H         1 UNK         0.0934 
     88 H88        30.2058    2.7532   -5.4205 H         1 UNK         0.0739 
     89 H89        30.2489    0.2657   -4.4769 H         1 UNK         0.3093 
     90 H90        29.6605   -1.2506   -7.0418 H         1 UNK         0.0818 
     91 H91        29.2990   -1.6936   -4.0177 H         1 UNK         0.0819 
     92 H92        29.7620   -2.9920   -5.0990 H         1 UNK         0.0819 
     93 H93        30.8106   -1.6065   -4.9141 H         1 UNK         0.0819 
     94 H94        26.9775   -1.2022   -6.2440 H         1 UNK         0.3041 
     95 H95        25.7526   -3.0046   -8.1192 H         1 UNK         0.0784 
     96 H96        26.4523   -5.3821   -8.0269 H         1 UNK         0.0793 
     97 H97        26.1759   -5.4250   -6.2903 H         1 UNK         0.0793 
     98 H98        24.8251   -5.1973   -7.3980 H         1 UNK         0.0793 
     99 H99        25.1361   -3.4205   -5.2545 H         1 UNK         0.3024 
    100 H100       24.0435   -0.0769   -4.7846 H         1 UNK         0.1171 
    101 H101       22.0122   -1.2773   -5.5993 H         1 UNK         0.0786 
    102 H102       22.4876   -2.7217   -4.7153 H         1 UNK         0.0786 
    103 H103       22.0637   -1.2472   -3.8445 H         1 UNK         0.0786 
    104 H104       24.3445   -2.4189   -3.0940 H         1 UNK         0.2977 
    105 H105       27.2787    1.3916   -3.9499 H         1 UNK         0.3127 
    106 H106       26.2449    4.0494   -3.2341 H         1 UNK         0.0770 
    107 H107       24.7956    1.3723   -3.0975 H         1 UNK         0.0814 
    108 H108       24.3631    2.8698   -2.3047 H         1 UNK         0.0814 
    109 H109       25.8114    2.0134   -1.8040 H         1 UNK         0.0814 
    110 H110       26.1986    2.0702   -6.1309 H         1 UNK         0.2983 
    111 H111       24.5022    4.0627   -7.3917 H         1 UNK         0.0947 
    112 H112       22.7926    2.4490   -8.2783 H         1 UNK         0.0806 
    113 H113       22.6645    2.6965   -6.5472 H         1 UNK         0.0806 
    114 H114       23.3869    1.2219   -7.1729 H         1 UNK         0.0806 
    115 H115       25.7090    0.7063   -8.0142 H         1 UNK         0.3000 
    116 H116       26.1271    1.1886  -10.7868 H         1 UNK         0.0850 
    117 H117       27.2373   -1.0146  -10.7576 H         1 UNK         0.0810 
    118 H118       25.7985   -1.0777   -9.7490 H         1 UNK         0.0810 
    119 H119       27.4001   -0.9518   -9.0136 H         1 UNK         0.0810 
    120 H120       28.1634    1.8747   -8.0825 H         1 UNK         0.3040 
    121 H121       29.9972    3.0366   -7.7659 H         1 UNK         0.0766 
    122 H122       29.4686    4.5600   -9.6524 H         1 UNK         0.0812 
    123 H123       30.3012    3.4914  -10.7791 H         1 UNK         0.0812 
    124 H124       31.1990    4.2963   -9.5046 H         1 UNK         0.0812 
    125 H125       30.4596    0.9455  -10.6243 H         1 UNK         0.3205 
    126 H126       33.0696   -0.0622   -9.6945 H         1 UNK         0.0754 
    127 H127       32.8957   -1.5073  -11.7277 H         1 UNK         0.0769 
    128 H128       32.6524    0.1848  -12.1338 H         1 UNK         0.0769 
    129 H129       31.2714   -0.9070  -12.0354 H         1 UNK         0.0769 
    130 H130       33.2614   -1.7227   -8.2844 H         1 UNK         0.2981 
    131 H131       30.9860   -3.0487   -7.1660 H         1 UNK         0.0541 
    132 H132       30.6057   -6.0027   -9.0232 H         1 UNK         0.3459 
    133 H133       29.8868   -4.7532   -8.0216 H         1 UNK         0.3459 
    134 H134       33.1046   -2.4066   -5.9197 H         1 UNK         0.0612 
    135 H135       33.9272   -3.7346   -6.7011 H         1 UNK         0.0612 
    136 H136       34.1916   -3.5359   -3.9001 H         1 UNK         0.0624 
    137 H137       33.3958   -4.7628   -2.9555 H         1 UNK         0.0624 
@<TRIPOS>BOND
     1    1    2 1    
     2    1   72 1    
     3    1   73 1    
     4    1   74 1    
     5    2    3 2    
     6    2    4 am   BACKBONE|DICT|INTERRES
     7    4    5 1    
     8    4   75 1    
     9    5    6 1    
    10    5   35 1    
    11    5   76 1    
    12    6    7 1    
    13    6   77 1    
    14    6   78 1    
    15    7    8 1    
    16    8    9 1    
    17    8   79 1    
    18    8   80 1    
    19    9   10 ar   
    20    9   14 ar   
    21   10   11 ar   
    22   10   81 1    
    23   11   12 ar   
    24   11   71 1    
    25   12   13 ar   
    26   12   82 1    
    27   13   14 ar   
    28   13   15 1    
    29   14   83 1    
    30   15   16 1    
    31   15   84 1    
    32   15   85 1    
    33   16   17 1    
    34   17   18 1    
    35   17   86 1    
    36   17   87 1    
    37   18   19 1    
    38   18   37 1    
    39   18   88 1    
    40   19   20 am   BACKBONE|DICT|INTERRES
    41   19   89 1    
    42   20   21 2    
    43   20   22 1    
    44   22   23 1    
    45   22   24 1    
    46   22   90 1    
    47   23   91 1    
    48   23   92 1    
    49   23   93 1    
    50   24   25 am   BACKBONE|DICT|INTERRES
    51   24   94 1    
    52   25   26 2    
    53   25   27 1    
    54   27   28 1    
    55   27   29 1    
    56   27   95 1    
    57   28   96 1    
    58   28   97 1    
    59   28   98 1    
    60   29   30 am   BACKBONE|DICT|INTERRES
    61   29   99 1    
    62   30   31 2    
    63   30   32 1    
    64   32   33 1    
    65   32   34 1    
    66   32  100 1    
    67   33  101 1    
    68   33  102 1    
    69   33  103 1    
    70   34   35 am   BACKBONE|DICT|INTERRES
    71   34  104 1    
    72   35   36 2    
    73   37   38 2    
    74   37   39 am   BACKBONE|DICT|INTERRES
    75   39   40 1    
    76   39  105 1    
    77   40   41 1    
    78   40   42 1    
    79   40  106 1    
    80   41  107 1    
    81   41  108 1    
    82   41  109 1    
    83   42   43 2    
    84   42   44 am   BACKBONE|DICT|INTERRES
    85   44   45 1    
    86   44  110 1    
    87   45   46 1    
    88   45   47 1    
    89   45  111 1    
    90   46  112 1    
    91   46  113 1    
    92   46  114 1    
    93   47   48 2    
    94   47   49 am   BACKBONE|DICT|INTERRES
    95   49   50 1    
    96   49  115 1    
    97   50   51 1    
    98   50   52 1    
    99   50  116 1    
   100   51  117 1    
   101   51  118 1    
   102   51  119 1    
   103   52   53 2    
   104   52   54 am   BACKBONE|DICT|INTERRES
   105   54   55 1    
   106   54  120 1    
   107   55   56 1    
   108   55   57 1    
   109   55  121 1    
   110   56  122 1    
   111   56  123 1    
   112   56  124 1    
   113   57   58 2    
   114   57   59 am   BACKBONE|DICT|INTERRES
   115   59   60 1    
   116   59  125 1    
   117   60   61 1    
   118   60   62 1    
   119   60  126 1    
   120   61  127 1    
   121   61  128 1    
   122   61  129 1    
   123   62   63 2    
   124   62   64 am   BACKBONE|DICT|INTERRES
   125   64   65 1    
   126   64  130 1    
   127   65   66 1    
   128   65   69 1    
   129   65  131 1    
   130   66   67 am   BACKBONE|DICT|INTERRES
   131   66   68 2    
   132   67  132 1    
   133   67  133 1    
   134   69   70 1    
   135   69  134 1    
   136   69  135 1    
   137   70   71 1    
   138   71  136 1    
   139   71  137 1    
@<TRIPOS>SUBSTRUCTURE
     1 UNK         1 GROUP             0       ****    0 ROOT    
