@<TRIPOS>MOLECULE
3R137
137   139    1
SMALL
USER_CHARGES


@<TRIPOS>ATOM
      1 CA         27.2081   -6.6960   -1.3753 C.3       0 UNK        -0.2020 
      2 C          26.8673   -5.5105   -0.4848 C.2       0 UNK         0.4855 
      3 O          26.1466   -5.6707    0.5001 O.2       0 UNK        -0.5197 
      4 N          27.3732   -4.3190   -0.8283 N.am      1 UNK        -0.4892 
      5 CA         27.1636   -3.0688   -0.0801 C.3       1 UNK         0.0835 
      6 C6         28.3335   -2.0695   -0.2798 C.3       12 UNK        -0.0855 
      7 S7         29.9403   -2.7920    0.2084 S.3       12 UNK        -0.2931 
      8 C8         31.1215   -1.8798   -0.8479 C.3       12 UNK         0.0378 
      9 C9         30.9050   -2.0341   -2.3540 C.ar      12 UNK        -0.0802 
     10 C10        31.2772   -0.9851   -3.2002 C.ar      12 UNK        -0.0944 
     11 C11        31.0836   -1.0770   -4.5807 C.ar      12 UNK        -0.0787 
     12 C12        30.5040   -2.2299   -5.1143 C.ar      12 UNK        -0.0862 
     13 C13        30.1217   -3.2913   -4.2876 C.ar      12 UNK        -0.0733 
     14 C14        30.3531   -3.1947   -2.9121 C.ar      12 UNK        -0.0832 
     15 C15        29.4851   -4.5608   -4.8526 C.3       12 UNK         0.0240 
     16 S16        28.3863   -4.3047   -6.2904 S.3       12 UNK        -0.2522 
     17 C17        26.9981   -3.3445   -5.5922 C.3       12 UNK        -0.0967 
     18 CA         26.6113   -2.1545   -6.5125 C.3       5 UNK         0.0660 
     19 N          25.1959   -1.8018   -6.4099 N.am      5 UNK        -0.4015 
     20 C          24.4667   -1.3103   -7.4228 C.2       4 UNK         0.4946 
     21 O          24.8737   -1.2178   -8.5813 O.2       4 UNK        -0.5353 
     22 CA         23.0389   -0.8305   -7.1011 C.3       4 UNK         0.0277 
     23 CB         22.0207   -1.9462   -7.3877 C.3       4 UNK        -0.1981 
     24 N          22.8666   -0.3618   -5.7240 N.am      4 UNK        -0.4209 
     25 C          23.4812    0.7051   -5.1934 C.2       3 UNK         0.4942 
     26 O          24.2504    1.4369   -5.8151 O.2       3 UNK        -0.5208 
     27 CA         23.2400    0.9606   -3.6957 C.3       3 UNK         0.0250 
     28 CB         21.9675    1.7983   -3.4928 C.3       3 UNK        -0.1990 
     29 N          23.1618   -0.2598   -2.8812 N.am      3 UNK        -0.4232 
     30 C          24.0971   -1.2189   -2.8260 C.2       2 UNK         0.4993 
     31 O          25.1186   -1.2299   -3.5196 O.2       2 UNK        -0.5286 
     32 CA         23.8131   -2.4025   -1.8927 C.3       2 UNK         0.0209 
     33 CB         23.0573   -3.5051   -2.6525 C.3       2 UNK        -0.1931 
     34 N          25.0625   -2.9570   -1.3744 N.am      2 UNK        -0.4546 
     35 C          25.8074   -2.4026   -0.4077 C.2       1 UNK         0.5154 
     36 O          25.4603   -1.3997    0.2190 O.2       1 UNK        -0.5181 
     37 C          27.4673   -0.9059   -6.2445 C.2       5 UNK         0.5014 
     38 O          28.3300   -0.5830   -7.0593 O.2       5 UNK        -0.5248 
     39 N          27.1909   -0.2143   -5.1269 N.am      6 UNK        -0.4434 
     40 CA         27.9424    0.9395   -4.6217 C.3       6 UNK         0.0363 
     41 CB         27.3287    1.4111   -3.2955 C.3       6 UNK        -0.1936 
     42 C          28.0691    2.1131   -5.6088 C.2       6 UNK         0.5081 
     43 O          29.1022    2.7820   -5.6198 O.2       6 UNK        -0.5248 
     44 N          27.0311    2.3371   -6.4237 N.am      7 UNK        -0.4718 
     45 CA         27.0004    3.3655   -7.4656 C.3       7 UNK         0.0273 
     46 CB         25.5325    3.7315   -7.7464 C.3       7 UNK        -0.1935 
     47 C          27.7145    2.9634   -8.7726 C.2       7 UNK         0.5018 
     48 O          27.7757    3.7943   -9.6811 O.2       7 UNK        -0.5186 
     49 N          28.2059    1.7215   -8.8817 N.am      8 UNK        -0.4240 
     50 CA         28.7865    1.1590  -10.1000 C.3       8 UNK         0.0235 
     51 CB         27.6996    0.3537  -10.8456 C.3       8 UNK        -0.2000 
     52 C          30.0533    0.3559   -9.7586 C.2       8 UNK         0.4941 
     53 O          30.8927    0.8459   -9.0006 O.2       8 UNK        -0.5273 
     54 N          30.2010   -0.8311  -10.3711 N.am      9 UNK        -0.4262 
     55 CA         31.2601   -1.8362  -10.1730 C.3       9 UNK         0.0264 
     56 CB         31.1210   -2.4684   -8.7766 C.3       9 UNK        -0.1955 
     57 C          32.7009   -1.3393  -10.4186 C.2       9 UNK         0.5031 
     58 O          33.6470   -1.9760   -9.9514 O.2       9 UNK        -0.5390 
     59 N          32.8418   -0.2133  -11.1331 N.am      10 UNK        -0.4204 
     60 CA         34.0759    0.5456  -11.3629 C.3       10 UNK         0.0237 
     61 CB         35.0677   -0.2552  -12.2353 C.3       10 UNK        -0.1985 
     62 C          34.7179    1.0922  -10.0678 C.2       10 UNK         0.4970 
     63 O          35.9315    1.3071  -10.0443 O.2       10 UNK        -0.4914 
     64 N          33.9075    1.3377   -9.0252 N.am      11 UNK        -0.4285 
     65 CA         34.3527    1.9649   -7.7680 C.3       11 UNK         0.1007 
     66 C          34.7174    3.4742   -7.8983 C.2       11 UNK         0.5703 
     67 N          34.3111    4.1724   -8.9530 N.am      11 UNK        -0.7361 
     68 O          35.3904    4.0195   -7.0265 O.2       11 UNK        -0.4986 
     69 C69        33.3332    1.7576   -6.6191 C.3       12 UNK        -0.0947 
     70 S70        33.1353    0.0166   -6.1136 S.3       12 UNK        -0.2240 
     71 C71        31.4347    0.0993   -5.4807 C.3       12 UNK         0.0194 
     72 H72        27.8724   -6.4178   -2.1928 H         1 UNK         0.0906 
     73 H73        27.6997   -7.4735   -0.7910 H         1 UNK         0.0906 
     74 H74        26.2991   -7.1167   -1.8045 H         1 UNK         0.0906 
     75 H75        27.9632   -4.2415   -1.6424 H         1 UNK         0.3140 
     76 H76        27.1248   -3.3129    0.9842 H         1 UNK         0.1085 
     77 H77        28.3730   -1.7362   -1.3184 H         1 UNK         0.0836 
     78 H78        28.1796   -1.1704    0.3203 H         1 UNK         0.0836 
     79 H79        31.0745   -0.8252   -0.5709 H         1 UNK         0.0731 
     80 H80        32.1311   -2.2164   -0.6091 H         1 UNK         0.0731 
     81 H81        31.7104   -0.0858   -2.7834 H         1 UNK         0.1312 
     82 H82        30.3256   -2.2889   -6.1756 H         1 UNK         0.1406 
     83 H83        30.0948   -4.0255   -2.2714 H         1 UNK         0.1631 
     84 H84        28.9160   -5.0786   -4.0797 H         1 UNK         0.0717 
     85 H85        30.2858   -5.2387   -5.1505 H         1 UNK         0.0717 
     86 H86        26.1578   -4.0346   -5.5009 H         1 UNK         0.0934 
     87 H87        27.2230   -3.0190   -4.5742 H         1 UNK         0.0934 
     88 H88        26.8022   -2.4584   -7.5446 H         1 UNK         0.0739 
     89 H89        24.8114   -1.7780   -5.4729 H         1 UNK         0.3093 
     90 H90        22.8231    0.0098   -7.7647 H         1 UNK         0.0818 
     91 H91        20.9974   -1.5948   -7.2543 H         1 UNK         0.0819 
     92 H92        22.1078   -2.2984   -8.4167 H         1 UNK         0.0819 
     93 H93        22.1694   -2.8077   -6.7352 H         1 UNK         0.0819 
     94 H94        22.2515   -0.9005   -5.1318 H         1 UNK         0.3041 
     95 H95        24.0839    1.5419   -3.3238 H         1 UNK         0.0784 
     96 H96        22.0104    2.7200   -4.0754 H         1 UNK         0.0793 
     97 H97        21.0720    1.2583   -3.8030 H         1 UNK         0.0793 
     98 H98        21.8427    2.0851   -2.4484 H         1 UNK         0.0793 
     99 H99        22.3458   -0.3481   -2.2920 H         1 UNK         0.3024 
    100 H100       23.2037   -2.0609   -1.0526 H         1 UNK         0.1171 
    101 H101       22.1001   -3.1397   -3.0269 H         1 UNK         0.0786 
    102 H102       22.8449   -4.3568   -2.0057 H         1 UNK         0.0786 
    103 H103       23.6254   -3.8695   -3.5098 H         1 UNK         0.0786 
    104 H104       25.4371   -3.7634   -1.8507 H         1 UNK         0.2977 
    105 H105       26.4424   -0.5547   -4.5243 H         1 UNK         0.3127 
    106 H106       28.9480    0.5871   -4.4046 H         1 UNK         0.0770 
    107 H107       26.3296    1.8182   -3.4421 H         1 UNK         0.0814 
    108 H108       27.9363    2.1968   -2.8447 H         1 UNK         0.0814 
    109 H109       27.2610    0.5974   -2.5728 H         1 UNK         0.0814 
    110 H110       26.1907    1.7770   -6.3120 H         1 UNK         0.2983 
    111 H111       27.5044    4.2587   -7.0901 H         1 UNK         0.0947 
    112 H112       24.9771    2.8818   -8.1460 H         1 UNK         0.0806 
    113 H113       25.4587    4.5417   -8.4730 H         1 UNK         0.0806 
    114 H114       25.0261    4.0644   -6.8401 H         1 UNK         0.0806 
    115 H115       28.1916    1.0976   -8.0780 H         1 UNK         0.3000 
    116 H116       29.1216    1.9649  -10.7561 H         1 UNK         0.0850 
    117 H117       28.0544   -0.0104  -11.8103 H         1 UNK         0.0810 
    118 H118       26.8265    0.9741  -11.0496 H         1 UNK         0.0810 
    119 H119       27.3593   -0.5027  -10.2604 H         1 UNK         0.0810 
    120 H120       29.4637   -1.1111  -11.0032 H         1 UNK         0.3040 
    121 H121       31.0793   -2.6179  -10.9122 H         1 UNK         0.0766 
    122 H122       31.7518   -3.3521   -8.6741 H         1 UNK         0.0812 
    123 H123       30.0945   -2.7741   -8.5732 H         1 UNK         0.0812 
    124 H124       31.4252   -1.7601   -8.0065 H         1 UNK         0.0812 
    125 H125       31.9933    0.2231  -11.4649 H         1 UNK         0.3205 
    126 H126       33.7805    1.4259  -11.9355 H         1 UNK         0.0754 
    127 H127       35.9100    0.3660  -12.5425 H         1 UNK         0.0769 
    128 H128       34.5906   -0.6216  -13.1443 H         1 UNK         0.0769 
    129 H129       35.4767   -1.1135  -11.7015 H         1 UNK         0.0769 
    130 H130       32.9165    1.1255   -9.0902 H         1 UNK         0.2981 
    131 H131       35.2773    1.4660   -7.4710 H         1 UNK         0.0541 
    132 H132       33.7503    3.7394   -9.6683 H         1 UNK         0.3459 
    133 H133       34.5593    5.1465   -9.0250 H         1 UNK         0.3459 
    134 H134       32.3619    2.1628   -6.9107 H         1 UNK         0.0612 
    135 H135       33.6363    2.3081   -5.7263 H         1 UNK         0.0612 
    136 H136       31.3056    1.0300   -4.9261 H         1 UNK         0.0624 
    137 H137       30.7472    0.1520   -6.3253 H         1 UNK         0.0624 
@<TRIPOS>BOND
     1    1    2 1    
     2    1   72 1    
     3    1   73 1    
     4    1   74 1    
     5    2    3 2    
     6    2    4 am   BACKBONE|DICT|INTERRES
     7    4    5 1    
     8    4   75 1    
     9    5    6 1    
    10    5   35 1    
    11    5   76 1    
    12    6    7 1    
    13    6   77 1    
    14    6   78 1    
    15    7    8 1    
    16    8    9 1    
    17    8   79 1    
    18    8   80 1    
    19    9   10 ar   
    20    9   14 ar   
    21   10   11 ar   
    22   10   81 1    
    23   11   12 ar   
    24   11   71 1    
    25   12   13 ar   
    26   12   82 1    
    27   13   14 ar   
    28   13   15 1    
    29   14   83 1    
    30   15   16 1    
    31   15   84 1    
    32   15   85 1    
    33   16   17 1    
    34   17   18 1    
    35   17   86 1    
    36   17   87 1    
    37   18   19 1    
    38   18   37 1    
    39   18   88 1    
    40   19   20 am   BACKBONE|DICT|INTERRES
    41   19   89 1    
    42   20   21 2    
    43   20   22 1    
    44   22   23 1    
    45   22   24 1    
    46   22   90 1    
    47   23   91 1    
    48   23   92 1    
    49   23   93 1    
    50   24   25 am   BACKBONE|DICT|INTERRES
    51   24   94 1    
    52   25   26 2    
    53   25   27 1    
    54   27   28 1    
    55   27   29 1    
    56   27   95 1    
    57   28   96 1    
    58   28   97 1    
    59   28   98 1    
    60   29   30 am   BACKBONE|DICT|INTERRES
    61   29   99 1    
    62   30   31 2    
    63   30   32 1    
    64   32   33 1    
    65   32   34 1    
    66   32  100 1    
    67   33  101 1    
    68   33  102 1    
    69   33  103 1    
    70   34   35 am   BACKBONE|DICT|INTERRES
    71   34  104 1    
    72   35   36 2    
    73   37   38 2    
    74   37   39 am   BACKBONE|DICT|INTERRES
    75   39   40 1    
    76   39  105 1    
    77   40   41 1    
    78   40   42 1    
    79   40  106 1    
    80   41  107 1    
    81   41  108 1    
    82   41  109 1    
    83   42   43 2    
    84   42   44 am   BACKBONE|DICT|INTERRES
    85   44   45 1    
    86   44  110 1    
    87   45   46 1    
    88   45   47 1    
    89   45  111 1    
    90   46  112 1    
    91   46  113 1    
    92   46  114 1    
    93   47   48 2    
    94   47   49 am   BACKBONE|DICT|INTERRES
    95   49   50 1    
    96   49  115 1    
    97   50   51 1    
    98   50   52 1    
    99   50  116 1    
   100   51  117 1    
   101   51  118 1    
   102   51  119 1    
   103   52   53 2    
   104   52   54 am   BACKBONE|DICT|INTERRES
   105   54   55 1    
   106   54  120 1    
   107   55   56 1    
   108   55   57 1    
   109   55  121 1    
   110   56  122 1    
   111   56  123 1    
   112   56  124 1    
   113   57   58 2    
   114   57   59 am   BACKBONE|DICT|INTERRES
   115   59   60 1    
   116   59  125 1    
   117   60   61 1    
   118   60   62 1    
   119   60  126 1    
   120   61  127 1    
   121   61  128 1    
   122   61  129 1    
   123   62   63 2    
   124   62   64 am   BACKBONE|DICT|INTERRES
   125   64   65 1    
   126   64  130 1    
   127   65   66 1    
   128   65   69 1    
   129   65  131 1    
   130   66   67 am   BACKBONE|DICT|INTERRES
   131   66   68 2    
   132   67  132 1    
   133   67  133 1    
   134   69   70 1    
   135   69  134 1    
   136   69  135 1    
   137   70   71 1    
   138   71  136 1    
   139   71  137 1    
@<TRIPOS>SUBSTRUCTURE
     1 UNK         1 GROUP             0       ****    0 ROOT    
