@<TRIPOS>MOLECULE
3R137
137   139    1
SMALL
USER_CHARGES


@<TRIPOS>ATOM
      1 CA         27.8238   -7.0540   -0.8130 C.3       0 UNK        -0.2020 
      2 C          27.0595   -6.0193   -0.0004 C.2       0 UNK         0.4855 
      3 O          26.0288   -6.3418    0.5905 O.2       0 UNK        -0.5197 
      4 N          27.5552   -4.7754    0.0303 N.am      1 UNK        -0.4892 
      5 CA         26.9408   -3.6378    0.7296 C.3       1 UNK         0.0835 
      6 C6         27.9887   -2.5473    1.0778 C.3       12 UNK        -0.0855 
      7 S7         28.8021   -1.8073   -0.3803 S.3       12 UNK        -0.2931 
      8 C8         30.3726   -2.7263   -0.4515 C.3       12 UNK         0.0378 
      9 C9         30.9116   -2.7007   -1.8712 C.ar      12 UNK        -0.0802 
     10 C10        31.8803   -1.7640   -2.2471 C.ar      12 UNK        -0.0944 
     11 C11        32.3026   -1.6812   -3.5776 C.ar      12 UNK        -0.0787 
     12 C12        31.7685   -2.5593   -4.5238 C.ar      12 UNK        -0.0862 
     13 C13        30.7793   -3.4791   -4.1648 C.ar      12 UNK        -0.0733 
     14 C14        30.3752   -3.5650   -2.8312 C.ar      12 UNK        -0.0832 
     15 C15        30.0674   -4.2932   -5.2388 C.3       12 UNK         0.0240 
     16 S16        28.3396   -3.7376   -5.4862 S.3       12 UNK        -0.2522 
     17 C17        28.5129   -1.9190   -5.5297 C.3       12 UNK        -0.0967 
     18 CA         27.7326   -1.2384   -6.6732 C.3       5 UNK         0.0660 
     19 N          26.2821   -1.3746   -6.5191 N.am      5 UNK        -0.4015 
     20 C          25.3870   -1.0159   -7.4521 C.2       4 UNK         0.4946 
     21 O          25.6929   -0.5686   -8.5566 O.2       4 UNK        -0.5353 
     22 CA         23.8980   -1.1191   -7.0783 C.3       4 UNK         0.0277 
     23 CB         23.3646   -2.5278   -7.3831 C.3       4 UNK        -0.1981 
     24 N          23.6234   -0.7840   -5.6791 N.am      4 UNK        -0.4209 
     25 C          23.9270    0.3802   -5.0852 C.2       3 UNK         0.4942 
     26 O          24.4220    1.3384   -5.6782 O.2       3 UNK        -0.5208 
     27 CA         23.6833    0.4808   -3.5681 C.3       3 UNK         0.0250 
     28 CB         22.3785    1.2417   -3.2850 C.3       3 UNK        -0.1990 
     29 N          23.6496   -0.8189   -2.8845 N.am      3 UNK        -0.4232 
     30 C          24.6890   -1.6607   -2.7905 C.2       2 UNK         0.4993 
     31 O          25.7999   -1.4363   -3.2770 O.2       2 UNK        -0.5286 
     32 CA         24.4088   -3.0168   -2.1300 C.3       2 UNK         0.0209 
     33 CB         24.1738   -4.0887   -3.2083 C.3       2 UNK        -0.1931 
     34 N          25.5277   -3.4333   -1.2879 N.am      2 UNK        -0.4546 
     35 C          25.7090   -3.0631   -0.0123 C.2       1 UNK         0.5154 
     36 O          24.9349   -2.3181    0.5917 O.2       1 UNK        -0.5181 
     37 C          28.1661    0.2373   -6.7715 C.2       5 UNK         0.5014 
     38 O          29.0553    0.5520   -7.5646 O.2       5 UNK        -0.5248 
     39 N          27.5409    1.1093   -5.9673 N.am      6 UNK        -0.4434 
     40 CA         27.7927    2.5503   -5.9640 C.3       6 UNK         0.0363 
     41 CB         27.2231    3.1798   -4.6825 C.3       6 UNK        -0.1936 
     42 C          27.2199    3.2289   -7.2164 C.2       6 UNK         0.5081 
     43 O          27.8849    4.0909   -7.7892 O.2       6 UNK        -0.5248 
     44 N          26.0226    2.8000   -7.6419 N.am      7 UNK        -0.4718 
     45 CA         25.3648    3.2452   -8.8735 C.3       7 UNK         0.0273 
     46 CB         23.9334    2.6883   -8.9231 C.3       7 UNK        -0.1935 
     47 C          26.1475    2.8578  -10.1406 C.2       7 UNK         0.5018 
     48 O          26.2757    3.6818  -11.0468 O.2       7 UNK        -0.5186 
     49 N          26.6781    1.6268  -10.1697 N.am      8 UNK        -0.4240 
     50 CA         27.5427    1.1206  -11.2392 C.3       8 UNK         0.0235 
     51 CB         27.6008   -0.4138  -11.1522 C.3       8 UNK        -0.2000 
     52 C          28.9696    1.6985  -11.2077 C.2       8 UNK         0.4941 
     53 O          29.6524    1.6341  -12.2306 O.2       8 UNK        -0.5273 
     54 N          29.3983    2.2134  -10.0436 N.am      9 UNK        -0.4262 
     55 CA         30.7599    2.6427   -9.6991 C.3       9 UNK         0.0264 
     56 CB         31.1798    3.8838  -10.5147 C.3       9 UNK        -0.1955 
     57 C          31.7527    1.4693   -9.8092 C.2       9 UNK         0.5031 
     58 O          32.7494    1.5576  -10.5291 O.2       9 UNK        -0.5390 
     59 N          31.4148    0.3665   -9.1260 N.am      10 UNK        -0.4204 
     60 CA         32.0879   -0.9312   -9.2230 C.3       10 UNK         0.0237 
     61 CB         31.2556   -1.9863   -8.4778 C.3       10 UNK        -0.1985 
     62 C          33.5517   -0.9415   -8.7457 C.2       10 UNK         0.4970 
     63 O          34.3587   -1.6630   -9.3339 O.2       10 UNK        -0.4914 
     64 N          33.8722   -0.1546   -7.7105 N.am      11 UNK        -0.4285 
     65 CA         35.2495    0.0531   -7.2367 C.3       11 UNK         0.1007 
     66 C          35.8878    1.2534   -7.9802 C.2       11 UNK         0.5703 
     67 N          37.0874    1.0900   -8.5213 N.am      11 UNK        -0.7361 
     68 O          35.3201    2.3431   -8.0317 O.2       11 UNK        -0.4986 
     69 C69        35.3268    0.2532   -5.7005 C.3       12 UNK        -0.0947 
     70 S70        34.7674   -1.2196   -4.7809 S.3       12 UNK        -0.2240 
     71 C71        33.2454   -0.5747   -4.0252 C.3       12 UNK         0.0194 
     72 H72        28.7165   -6.6340   -1.2766 H         1 UNK         0.0906 
     73 H73        27.1883   -7.4542   -1.6027 H         1 UNK         0.0906 
     74 H74        28.1321   -7.8804   -0.1727 H         1 UNK         0.0906 
     75 H75        28.4015   -4.5606   -0.4744 H         1 UNK         0.3140 
     76 H76        26.5540   -4.0134    1.6803 H         1 UNK         0.1085 
     77 H77        27.5183   -1.7433    1.6476 H         1 UNK         0.0836 
     78 H78        28.7482   -2.9624    1.7424 H         1 UNK         0.0836 
     79 H79        31.0853   -2.2825    0.2454 H         1 UNK         0.0731 
     80 H80        30.2309   -3.7594   -0.1325 H         1 UNK         0.0731 
     81 H81        32.2675   -1.0694   -1.5141 H         1 UNK         0.1312 
     82 H82        32.0811   -2.4775   -5.5547 H         1 UNK         0.1406 
     83 H83        29.5911   -4.2573   -2.5593 H         1 UNK         0.1631 
     84 H84        30.0684   -5.3478   -4.9601 H         1 UNK         0.0717 
     85 H85        30.5980   -4.2253   -6.1898 H         1 UNK         0.0717 
     86 H86        28.2110   -1.5245   -4.5570 H         1 UNK         0.0934 
     87 H87        29.5664   -1.6684   -5.6348 H         1 UNK         0.0934 
     88 H88        28.0120   -1.7187   -7.6136 H         1 UNK         0.0739 
     89 H89        25.9579   -1.7089   -5.6209 H         1 UNK         0.3093 
     90 H90        23.3530   -0.4048   -7.6981 H         1 UNK         0.0818 
     91 H91        22.2897   -2.5917   -7.2126 H         1 UNK         0.0819 
     92 H92        23.5405   -2.7926   -8.4269 H         1 UNK         0.0819 
     93 H93        23.8493   -3.2875   -6.7684 H         1 UNK         0.0819 
     94 H94        23.2021   -1.5057   -5.1140 H         1 UNK         0.3041 
     95 H95        24.5122    1.0548   -3.1480 H         1 UNK         0.0784 
     96 H96        22.3892    2.2239   -3.7603 H         1 UNK         0.0793 
     97 H97        21.5069    0.7063   -3.6638 H         1 UNK         0.0793 
     98 H98        22.2366    1.4039   -2.2163 H         1 UNK         0.0793 
     99 H99        22.7671   -1.0835   -2.4696 H         1 UNK         0.3024 
    100 H100       23.5103   -2.9402   -1.5129 H         1 UNK         0.1171 
    101 H101       23.3188   -3.8347   -3.8362 H         1 UNK         0.0786 
    102 H102       23.9663   -5.0612   -2.7609 H         1 UNK         0.0786 
    103 H103       25.0390   -4.2002   -3.8640 H         1 UNK         0.0786 
    104 H104       26.2394   -4.0005   -1.7231 H         1 UNK         0.2977 
    105 H105       26.7949    0.7766   -5.3725 H         1 UNK         0.3127 
    106 H106       28.8739    2.7069   -5.9648 H         1 UNK         0.0770 
    107 H107       26.1401    3.0717   -4.6195 H         1 UNK         0.0814 
    108 H108       27.4444    4.2472   -4.6447 H         1 UNK         0.0814 
    109 H109       27.6581    2.7277   -3.7910 H         1 UNK         0.0814 
    110 H110       25.5182    2.1295   -7.0670 H         1 UNK         0.2983 
    111 H111       25.3067    4.3354   -8.8415 H         1 UNK         0.0947 
    112 H112       23.4031    3.0547   -9.8031 H         1 UNK         0.0806 
    113 H113       23.3587    2.9906   -8.0473 H         1 UNK         0.0806 
    114 H114       23.9258    1.5992   -8.9683 H         1 UNK         0.0806 
    115 H115       26.4520    0.9759   -9.4208 H         1 UNK         0.3000 
    116 H116       27.0984    1.3934  -12.1989 H         1 UNK         0.0850 
    117 H117       28.2116   -0.8302  -11.9544 H         1 UNK         0.0810 
    118 H118       26.6073   -0.8541  -11.2392 H         1 UNK         0.0810 
    119 H119       28.0322   -0.7459  -10.2066 H         1 UNK         0.0810 
    120 H120       28.7524    2.1852   -9.2653 H         1 UNK         0.3040 
    121 H121       30.7341    2.9322   -8.6472 H         1 UNK         0.0766 
    122 H122       31.2628    3.6647  -11.5796 H         1 UNK         0.0812 
    123 H123       30.4632    4.6962  -10.3938 H         1 UNK         0.0812 
    124 H124       32.1509    4.2541  -10.1840 H         1 UNK         0.0812 
    125 H125       30.5637    0.4003   -8.5641 H         1 UNK         0.3205 
    126 H126       32.1010   -1.2050  -10.2802 H         1 UNK         0.0754 
    127 H127       31.7508   -2.9585   -8.4801 H         1 UNK         0.0769 
    128 H128       30.2789   -2.1192   -8.9436 H         1 UNK         0.0769 
    129 H129       31.0912   -1.6997   -7.4408 H         1 UNK         0.0769 
    130 H130       33.1662    0.4490   -7.3181 H         1 UNK         0.2981 
    131 H131       35.8396   -0.8368   -7.4667 H         1 UNK         0.0541 
    132 H132       37.5644    0.2029   -8.4747 H         1 UNK         0.3459 
    133 H133       37.5208    1.8675   -8.9945 H         1 UNK         0.3459 
    134 H134       34.7552    1.1310   -5.3932 H         1 UNK         0.0612 
    135 H135       36.3578    0.4459   -5.3981 H         1 UNK         0.0612 
    136 H136       33.5139    0.0756   -3.1912 H         1 UNK         0.0624 
    137 H137       32.7161    0.0480   -4.7479 H         1 UNK         0.0624 
@<TRIPOS>BOND
     1    1    2 1    
     2    1   72 1    
     3    1   73 1    
     4    1   74 1    
     5    2    3 2    
     6    2    4 am   BACKBONE|DICT|INTERRES
     7    4    5 1    
     8    4   75 1    
     9    5    6 1    
    10    5   35 1    
    11    5   76 1    
    12    6    7 1    
    13    6   77 1    
    14    6   78 1    
    15    7    8 1    
    16    8    9 1    
    17    8   79 1    
    18    8   80 1    
    19    9   10 ar   
    20    9   14 ar   
    21   10   11 ar   
    22   10   81 1    
    23   11   12 ar   
    24   11   71 1    
    25   12   13 ar   
    26   12   82 1    
    27   13   14 ar   
    28   13   15 1    
    29   14   83 1    
    30   15   16 1    
    31   15   84 1    
    32   15   85 1    
    33   16   17 1    
    34   17   18 1    
    35   17   86 1    
    36   17   87 1    
    37   18   19 1    
    38   18   37 1    
    39   18   88 1    
    40   19   20 am   BACKBONE|DICT|INTERRES
    41   19   89 1    
    42   20   21 2    
    43   20   22 1    
    44   22   23 1    
    45   22   24 1    
    46   22   90 1    
    47   23   91 1    
    48   23   92 1    
    49   23   93 1    
    50   24   25 am   BACKBONE|DICT|INTERRES
    51   24   94 1    
    52   25   26 2    
    53   25   27 1    
    54   27   28 1    
    55   27   29 1    
    56   27   95 1    
    57   28   96 1    
    58   28   97 1    
    59   28   98 1    
    60   29   30 am   BACKBONE|DICT|INTERRES
    61   29   99 1    
    62   30   31 2    
    63   30   32 1    
    64   32   33 1    
    65   32   34 1    
    66   32  100 1    
    67   33  101 1    
    68   33  102 1    
    69   33  103 1    
    70   34   35 am   BACKBONE|DICT|INTERRES
    71   34  104 1    
    72   35   36 2    
    73   37   38 2    
    74   37   39 am   BACKBONE|DICT|INTERRES
    75   39   40 1    
    76   39  105 1    
    77   40   41 1    
    78   40   42 1    
    79   40  106 1    
    80   41  107 1    
    81   41  108 1    
    82   41  109 1    
    83   42   43 2    
    84   42   44 am   BACKBONE|DICT|INTERRES
    85   44   45 1    
    86   44  110 1    
    87   45   46 1    
    88   45   47 1    
    89   45  111 1    
    90   46  112 1    
    91   46  113 1    
    92   46  114 1    
    93   47   48 2    
    94   47   49 am   BACKBONE|DICT|INTERRES
    95   49   50 1    
    96   49  115 1    
    97   50   51 1    
    98   50   52 1    
    99   50  116 1    
   100   51  117 1    
   101   51  118 1    
   102   51  119 1    
   103   52   53 2    
   104   52   54 am   BACKBONE|DICT|INTERRES
   105   54   55 1    
   106   54  120 1    
   107   55   56 1    
   108   55   57 1    
   109   55  121 1    
   110   56  122 1    
   111   56  123 1    
   112   56  124 1    
   113   57   58 2    
   114   57   59 am   BACKBONE|DICT|INTERRES
   115   59   60 1    
   116   59  125 1    
   117   60   61 1    
   118   60   62 1    
   119   60  126 1    
   120   61  127 1    
   121   61  128 1    
   122   61  129 1    
   123   62   63 2    
   124   62   64 am   BACKBONE|DICT|INTERRES
   125   64   65 1    
   126   64  130 1    
   127   65   66 1    
   128   65   69 1    
   129   65  131 1    
   130   66   67 am   BACKBONE|DICT|INTERRES
   131   66   68 2    
   132   67  132 1    
   133   67  133 1    
   134   69   70 1    
   135   69  134 1    
   136   69  135 1    
   137   70   71 1    
   138   71  136 1    
   139   71  137 1    
@<TRIPOS>SUBSTRUCTURE
     1 UNK         1 GROUP             0       ****    0 ROOT    
