@<TRIPOS>MOLECULE
3R137
137   139    1
SMALL
USER_CHARGES


@<TRIPOS>ATOM
      1 CA         31.3042   -0.3458    0.0760 C.3       0 UNK        -0.2020 
      2 C          30.3886   -0.6839   -1.0900 C.2       0 UNK         0.4855 
      3 O          30.3909    0.0260   -2.0921 O.2       0 UNK        -0.5197 
      4 N          29.6017   -1.7608   -0.9656 N.am      1 UNK        -0.4892 
      5 CA         28.6937   -2.2772   -2.0043 C.3       1 UNK         0.0835 
      6 C6         28.2125   -3.7158   -1.6837 C.3       12 UNK        -0.0855 
      7 S7         29.5986   -4.8333   -1.2618 S.3       12 UNK        -0.2931 
      8 C8         29.7217   -5.9118   -2.7239 C.3       12 UNK         0.0378 
      9 C9         29.9485   -5.1476   -4.0229 C.ar      12 UNK        -0.0802 
     10 C10        31.0657   -4.3205   -4.1879 C.ar      12 UNK        -0.0944 
     11 C11        31.2872   -3.6569   -5.3997 C.ar      12 UNK        -0.0787 
     12 C12        30.3716   -3.8227   -6.4454 C.ar      12 UNK        -0.0862 
     13 C13        29.2499   -4.6435   -6.2962 C.ar      12 UNK        -0.0733 
     14 C14        29.0536   -5.3119   -5.0831 C.ar      12 UNK        -0.0832 
     15 C15        28.3002   -4.8274   -7.4789 C.3       12 UNK         0.0240 
     16 S16        26.5432   -5.0865   -7.0433 S.3       12 UNK        -0.2522 
     17 C17        26.1598   -3.6647   -5.9662 C.3       12 UNK        -0.0967 
     18 CA         25.7164   -2.4036   -6.7520 C.3       5 UNK         0.0660 
     19 N          24.6235   -1.7087   -6.0638 N.am      5 UNK        -0.4015 
     20 C          24.0151   -0.5733   -6.4288 C.2       4 UNK         0.4946 
     21 O          24.3569    0.1102   -7.3947 O.2       4 UNK        -0.5353 
     22 CA         22.8176   -0.1055   -5.5780 C.3       4 UNK         0.0277 
     23 CB         21.4938   -0.6328   -6.1644 C.3       4 UNK        -0.1981 
     24 N          22.9115   -0.3907   -4.1368 N.am      4 UNK        -0.4209 
     25 C          22.9284   -1.5650   -3.4899 C.2       3 UNK         0.4942 
     26 O          22.8943   -2.6587   -4.0566 O.2       3 UNK        -0.5208 
     27 CA         23.0751   -1.4932   -1.9562 C.3       3 UNK         0.0250 
     28 CB         22.8756   -2.8624   -1.2798 C.3       3 UNK        -0.1990 
     29 N          24.3859   -0.9641   -1.5718 N.am      3 UNK        -0.4232 
     30 C          24.7783    0.3107   -1.6946 C.2       2 UNK         0.4993 
     31 O          24.0274    1.2151   -2.0655 O.2       2 UNK        -0.5286 
     32 CA         26.2447    0.6486   -1.3749 C.3       2 UNK         0.0209 
     33 CB         26.3362    1.4627   -0.0735 C.3       2 UNK        -0.1931 
     34 N          27.1641   -0.4918   -1.2817 N.am      2 UNK        -0.4546 
     35 C          27.4937   -1.3392   -2.2690 C.2       1 UNK         0.5154 
     36 O          26.9111   -1.3821   -3.3537 O.2       1 UNK        -0.5181 
     37 C          26.9228   -1.4988   -7.0714 C.2       5 UNK         0.5014 
     38 O          27.4500   -1.5650   -8.1827 O.2       5 UNK        -0.5248 
     39 N          27.3084   -0.6465   -6.1089 N.am      6 UNK        -0.4434 
     40 CA         28.4321    0.2921   -6.1842 C.3       6 UNK         0.0363 
     41 CB         28.4499    1.1837   -4.9327 C.3       6 UNK        -0.1936 
     42 C          28.4758    1.1779   -7.4366 C.2       6 UNK         0.5081 
     43 O          29.5715    1.5085   -7.8881 O.2       6 UNK        -0.5248 
     44 N          27.3073    1.5120   -8.0014 N.am      7 UNK        -0.4718 
     45 CA         27.1646    2.2907   -9.2346 C.3       7 UNK         0.0273 
     46 CB         25.6753    2.5916   -9.4659 C.3       7 UNK        -0.1935 
     47 C          27.7798    1.6261  -10.4823 C.2       7 UNK         0.5018 
     48 O          28.0427    2.3297  -11.4582 O.2       7 UNK        -0.5186 
     49 N          28.0106    0.3047  -10.4390 N.am      8 UNK        -0.4240 
     50 CA         28.6377   -0.4601  -11.5179 C.3       8 UNK         0.0235 
     51 CB         28.4212   -1.9621  -11.2698 C.3       8 UNK        -0.2000 
     52 C          30.1375   -0.1650  -11.7036 C.2       8 UNK         0.4941 
     53 O          30.6330   -0.3378  -12.8185 O.2       8 UNK        -0.5273 
     54 N          30.8386    0.2437  -10.6340 N.am      9 UNK        -0.4262 
     55 CA         32.2962    0.4322  -10.6441 C.3       9 UNK         0.0264 
     56 CB         32.9823   -0.8952  -10.2650 C.3       9 UNK        -0.1955 
     57 C          32.7953    1.6049   -9.7795 C.2       9 UNK         0.5031 
     58 O          34.0106    1.7725   -9.6653 O.2       9 UNK        -0.5390 
     59 N          31.8807    2.3945   -9.1956 N.am      10 UNK        -0.4204 
     60 CA         32.1239    3.4968   -8.2544 C.3       10 UNK         0.0237 
     61 CB         32.8801    4.6611   -8.9312 C.3       10 UNK        -0.1985 
     62 C          32.7853    3.0069   -6.9507 C.2       10 UNK         0.4970 
     63 O          33.7778    3.5853   -6.5027 O.2       10 UNK        -0.4914 
     64 N          32.2297    1.9273   -6.3855 N.am      11 UNK        -0.4285 
     65 CA         32.7064    1.2793   -5.1521 C.3       11 UNK         0.1007 
     66 C          32.5446    2.1761   -3.8926 C.2       11 UNK         0.5703 
     67 N          33.3942    1.9923   -2.8903 N.am      11 UNK        -0.7361 
     68 O          31.6524    3.0189   -3.8074 O.2       11 UNK        -0.4986 
     69 C69        32.0501   -0.1103   -4.9333 C.3       12 UNK        -0.0947 
     70 S70        32.2607   -1.2098   -6.3728 S.3       12 UNK        -0.2240 
     71 C71        32.5589   -2.8380   -5.6065 C.3       12 UNK         0.0194 
     72 H72        31.0570    0.6385    0.4727 H         1 UNK         0.0906 
     73 H73        31.2207   -1.0708    0.8854 H         1 UNK         0.0906 
     74 H74        32.3414   -0.3272   -0.2578 H         1 UNK         0.0906 
     75 H75        29.6665   -2.3298   -0.1328 H         1 UNK         0.3140 
     76 H76        29.2605   -2.3149   -2.9379 H         1 UNK         0.1085 
     77 H77        27.5243   -3.7096   -0.8361 H         1 UNK         0.0836 
     78 H78        27.6518   -4.1285   -2.5250 H         1 UNK         0.0836 
     79 H79        30.5494   -6.6069   -2.5771 H         1 UNK         0.0731 
     80 H80        28.8187   -6.5218   -2.7809 H         1 UNK         0.0731 
     81 H81        31.7720   -4.2130   -3.3759 H         1 UNK         0.1312 
     82 H82        30.5463   -3.3256   -7.3900 H         1 UNK         0.1406 
     83 H83        28.2039   -5.9703   -4.9656 H         1 UNK         0.1631 
     84 H84        28.6376   -5.6909   -8.0533 H         1 UNK         0.0717 
     85 H85        28.3675   -3.9754   -8.1550 H         1 UNK         0.0717 
     86 H86        25.3501   -4.0061   -5.3186 H         1 UNK         0.0934 
     87 H87        26.9844   -3.4546   -5.2826 H         1 UNK         0.0934 
     88 H88        25.2937   -2.7143   -7.7097 H         1 UNK         0.0739 
     89 H89        24.2092   -2.1968   -5.2737 H         1 UNK         0.3093 
     90 H90        22.7981    0.9829   -5.6558 H         1 UNK         0.0818 
     91 H91        21.3855   -0.3355   -7.2084 H         1 UNK         0.0819 
     92 H92        21.4370   -1.7213   -6.1313 H         1 UNK         0.0819 
     93 H93        20.6346   -0.2354   -5.6243 H         1 UNK         0.0819 
     94 H94        23.0576    0.4277   -3.5498 H         1 UNK         0.3041 
     95 H95        22.3007   -0.8193   -1.5831 H         1 UNK         0.0784 
     96 H96        21.9017   -3.2840   -1.5328 H         1 UNK         0.0793 
     97 H97        23.6334   -3.5829   -1.5908 H         1 UNK         0.0793 
     98 H98        22.9180   -2.7784   -0.1937 H         1 UNK         0.0793 
     99 H99        25.0809   -1.6396   -1.2912 H         1 UNK         0.3024 
    100 H100       26.5984    1.2776   -2.1948 H         1 UNK         0.1171 
    101 H101       26.0262    0.8754    0.7917 H         1 UNK         0.0786 
    102 H102       25.6952    2.3447   -0.1153 H         1 UNK         0.0786 
    103 H103       27.3527    1.8148    0.1043 H         1 UNK         0.0786 
    104 H104       27.7091   -0.5534   -0.4337 H         1 UNK         0.2977 
    105 H105       26.8642   -0.7355   -5.1988 H         1 UNK         0.3127 
    106 H106       29.3351   -0.3176   -6.2025 H         1 UNK         0.0770 
    107 H107       27.5060    1.7131   -4.7996 H         1 UNK         0.0814 
    108 H108       29.2402    1.9340   -4.9920 H         1 UNK         0.0814 
    109 H109       28.6414    0.6029   -4.0334 H         1 UNK         0.0814 
    110 H110       26.4545    1.1445   -7.5960 H         1 UNK         0.2983 
    111 H111       27.6881    3.2377   -9.0870 H         1 UNK         0.0947 
    112 H112       25.5333    3.2102  -10.3532 H         1 UNK         0.0806 
    113 H113       25.2424    3.1307   -8.6231 H         1 UNK         0.0806 
    114 H114       25.0988    1.6767   -9.6098 H         1 UNK         0.0806 
    115 H115       27.7624   -0.2121   -9.5986 H         1 UNK         0.3000 
    116 H116       28.1348   -0.1954  -12.4507 H         1 UNK         0.0850 
    117 H117       28.8162   -2.5555  -12.0955 H         1 UNK         0.0810 
    118 H118       27.3620   -2.2018  -11.1751 H         1 UNK         0.0810 
    119 H119       28.9220   -2.2963  -10.3601 H         1 UNK         0.0810 
    120 H120       30.3611    0.3448   -9.7469 H         1 UNK         0.3040 
    121 H121       32.6134    0.6907  -11.6566 H         1 UNK         0.0766 
    122 H122       34.0687   -0.7985  -10.2653 H         1 UNK         0.0812 
    123 H123       32.6838   -1.2307   -9.2727 H         1 UNK         0.0812 
    124 H124       32.7326   -1.6858  -10.9726 H         1 UNK         0.0812 
    125 H125       30.9043    2.1366   -9.2768 H         1 UNK         0.3205 
    126 H126       31.1403    3.8729   -7.9683 H         1 UNK         0.0754 
    127 H127       32.9450    5.5217   -8.2643 H         1 UNK         0.0769 
    128 H128       32.3706    4.9909   -9.8365 H         1 UNK         0.0769 
    129 H129       33.8995    4.3846   -9.2016 H         1 UNK         0.0769 
    130 H130       31.4014    1.5324   -6.8129 H         1 UNK         0.2981 
    131 H131       33.7772    1.1153   -5.2891 H         1 UNK         0.0541 
    132 H132       34.1259    1.3016   -2.9450 H         1 UNK         0.3459 
    133 H133       33.2979    2.5565   -2.0612 H         1 UNK         0.3459 
    134 H134       30.9879   -0.0092   -4.7211 H         1 UNK         0.0612 
    135 H135       32.4820   -0.5896   -4.0535 H         1 UNK         0.0612 
    136 H136       33.1060   -2.7140   -4.6711 H         1 UNK         0.0624 
    137 H137       33.2169   -3.4042   -6.2667 H         1 UNK         0.0624 
@<TRIPOS>BOND
     1    1    2 1    
     2    1   72 1    
     3    1   73 1    
     4    1   74 1    
     5    2    3 2    
     6    2    4 am   BACKBONE|DICT|INTERRES
     7    4    5 1    
     8    4   75 1    
     9    5    6 1    
    10    5   35 1    
    11    5   76 1    
    12    6    7 1    
    13    6   77 1    
    14    6   78 1    
    15    7    8 1    
    16    8    9 1    
    17    8   79 1    
    18    8   80 1    
    19    9   10 ar   
    20    9   14 ar   
    21   10   11 ar   
    22   10   81 1    
    23   11   12 ar   
    24   11   71 1    
    25   12   13 ar   
    26   12   82 1    
    27   13   14 ar   
    28   13   15 1    
    29   14   83 1    
    30   15   16 1    
    31   15   84 1    
    32   15   85 1    
    33   16   17 1    
    34   17   18 1    
    35   17   86 1    
    36   17   87 1    
    37   18   19 1    
    38   18   37 1    
    39   18   88 1    
    40   19   20 am   BACKBONE|DICT|INTERRES
    41   19   89 1    
    42   20   21 2    
    43   20   22 1    
    44   22   23 1    
    45   22   24 1    
    46   22   90 1    
    47   23   91 1    
    48   23   92 1    
    49   23   93 1    
    50   24   25 am   BACKBONE|DICT|INTERRES
    51   24   94 1    
    52   25   26 2    
    53   25   27 1    
    54   27   28 1    
    55   27   29 1    
    56   27   95 1    
    57   28   96 1    
    58   28   97 1    
    59   28   98 1    
    60   29   30 am   BACKBONE|DICT|INTERRES
    61   29   99 1    
    62   30   31 2    
    63   30   32 1    
    64   32   33 1    
    65   32   34 1    
    66   32  100 1    
    67   33  101 1    
    68   33  102 1    
    69   33  103 1    
    70   34   35 am   BACKBONE|DICT|INTERRES
    71   34  104 1    
    72   35   36 2    
    73   37   38 2    
    74   37   39 am   BACKBONE|DICT|INTERRES
    75   39   40 1    
    76   39  105 1    
    77   40   41 1    
    78   40   42 1    
    79   40  106 1    
    80   41  107 1    
    81   41  108 1    
    82   41  109 1    
    83   42   43 2    
    84   42   44 am   BACKBONE|DICT|INTERRES
    85   44   45 1    
    86   44  110 1    
    87   45   46 1    
    88   45   47 1    
    89   45  111 1    
    90   46  112 1    
    91   46  113 1    
    92   46  114 1    
    93   47   48 2    
    94   47   49 am   BACKBONE|DICT|INTERRES
    95   49   50 1    
    96   49  115 1    
    97   50   51 1    
    98   50   52 1    
    99   50  116 1    
   100   51  117 1    
   101   51  118 1    
   102   51  119 1    
   103   52   53 2    
   104   52   54 am   BACKBONE|DICT|INTERRES
   105   54   55 1    
   106   54  120 1    
   107   55   56 1    
   108   55   57 1    
   109   55  121 1    
   110   56  122 1    
   111   56  123 1    
   112   56  124 1    
   113   57   58 2    
   114   57   59 am   BACKBONE|DICT|INTERRES
   115   59   60 1    
   116   59  125 1    
   117   60   61 1    
   118   60   62 1    
   119   60  126 1    
   120   61  127 1    
   121   61  128 1    
   122   61  129 1    
   123   62   63 2    
   124   62   64 am   BACKBONE|DICT|INTERRES
   125   64   65 1    
   126   64  130 1    
   127   65   66 1    
   128   65   69 1    
   129   65  131 1    
   130   66   67 am   BACKBONE|DICT|INTERRES
   131   66   68 2    
   132   67  132 1    
   133   67  133 1    
   134   69   70 1    
   135   69  134 1    
   136   69  135 1    
   137   70   71 1    
   138   71  136 1    
   139   71  137 1    
@<TRIPOS>SUBSTRUCTURE
     1 UNK         1 GROUP             0       ****    0 ROOT    
