@<TRIPOS>MOLECULE
3R137
137   139    1
SMALL
USER_CHARGES


@<TRIPOS>ATOM
      1 CA         27.0876   -8.0236   -2.6513 C.3       0 UNK        -0.2020 
      2 C          26.8043   -6.8948   -1.6712 C.2       0 UNK         0.4855 
      3 O          25.9467   -7.0418   -0.7992 O.2       0 UNK        -0.5197 
      4 N          27.5251   -5.7747   -1.8019 N.am      1 UNK        -0.4892 
      5 CA         27.3504   -4.5651   -0.9886 C.3       1 UNK         0.0835 
      6 C6         28.5925   -3.6437   -1.0551 C.3       12 UNK        -0.0855 
      7 S7         30.1330   -4.4865   -0.5485 S.3       12 UNK        -0.2931 
      8 C8         31.2405   -3.0759   -0.2175 C.3       12 UNK         0.0378 
      9 C9         31.2584   -2.0887   -1.3755 C.ar      12 UNK        -0.0802 
     10 C10        31.9070   -2.4098   -2.5701 C.ar      12 UNK        -0.0944 
     11 C11        31.8709   -1.5294   -3.6554 C.ar      12 UNK        -0.0787 
     12 C12        31.1746   -0.3202   -3.5426 C.ar      12 UNK        -0.0862 
     13 C13        30.5292    0.0144   -2.3463 C.ar      12 UNK        -0.0733 
     14 C14        30.5906   -0.8673   -1.2634 C.ar      12 UNK        -0.0832 
     15 C15        29.7521    1.3166   -2.2123 C.3       12 UNK         0.0240 
     16 S16        27.9919    0.9866   -1.8703 S.3       12 UNK        -0.2522 
     17 C17        27.1528    2.0508   -3.0883 C.3       12 UNK        -0.0967 
     18 CA         27.2246    1.4937   -4.5307 C.3       5 UNK         0.0660 
     19 N          26.7665    0.1047   -4.6270 N.am      5 UNK        -0.4015 
     20 C          26.9958   -0.6996   -5.6764 C.2       4 UNK         0.4946 
     21 O          27.6192   -0.3469   -6.6773 O.2       4 UNK        -0.5353 
     22 CA         26.3750   -2.1088   -5.6400 C.3       4 UNK         0.0277 
     23 CB         27.3980   -3.1231   -5.1077 C.3       4 UNK        -0.1981 
     24 N          25.1378   -2.1914   -4.8529 N.am      4 UNK        -0.4209 
     25 C          24.0374   -1.4577   -5.0891 C.2       3 UNK         0.4942 
     26 O          23.9388   -0.6739   -6.0327 O.2       3 UNK        -0.5208 
     27 CA         22.8663   -1.5572   -4.0955 C.3       3 UNK         0.0250 
     28 CB         21.7632   -2.4670   -4.6591 C.3       3 UNK        -0.1990 
     29 N          23.2324   -2.0200   -2.7548 N.am      3 UNK        -0.4232 
     30 C          24.1250   -1.4491   -1.9323 C.2       2 UNK         0.4993 
     31 O          24.7761   -0.4433   -2.2183 O.2       2 UNK        -0.5286 
     32 CA         24.3533   -2.1410   -0.5729 C.3       2 UNK         0.0209 
     33 CB         23.1736   -3.0368   -0.1310 C.3       2 UNK        -0.1931 
     34 N          25.6038   -2.9122   -0.5070 N.am      2 UNK        -0.4546 
     35 C          26.0709   -3.8011   -1.3990 C.2       1 UNK         0.5154 
     36 O          25.5474   -4.0189   -2.4968 O.2       1 UNK        -0.5181 
     37 C          26.5109    2.4427   -5.5180 C.2       5 UNK         0.5014 
     38 O          27.0305    3.5305   -5.7687 O.2       5 UNK        -0.5248 
     39 N          25.3717    2.0305   -6.1000 N.am      6 UNK        -0.4434 
     40 CA         24.7126    2.7547   -7.1931 C.3       6 UNK         0.0363 
     41 CB         23.2778    2.2330   -7.3708 C.3       6 UNK        -0.1936 
     42 C          25.4894    2.6618   -8.5217 C.2       6 UNK         0.5081 
     43 O          25.2589    3.4838   -9.4085 O.2       6 UNK        -0.5248 
     44 N          26.3991    1.6843   -8.6324 N.am      7 UNK        -0.4718 
     45 CA         27.2973    1.4742   -9.7640 C.3       7 UNK         0.0273 
     46 CB         26.9321    0.1451  -10.4508 C.3       7 UNK        -0.1935 
     47 C          28.7571    1.5016   -9.2816 C.2       7 UNK         0.5018 
     48 O          29.5763    0.7266   -9.7778 O.2       7 UNK        -0.5186 
     49 N          29.0728    2.3965   -8.3300 N.am      8 UNK        -0.4240 
     50 CA         30.3856    2.5264   -7.6805 C.3       8 UNK         0.0235 
     51 CB         30.3596    3.6849   -6.6713 C.3       8 UNK        -0.2000 
     52 C          31.5754    2.6867   -8.6446 C.2       8 UNK         0.4941 
     53 O          32.6540    2.1681   -8.3580 O.2       8 UNK        -0.5273 
     54 N          31.3488    3.3577   -9.7829 N.am      9 UNK        -0.4262 
     55 CA         32.3228    3.5198  -10.8659 C.3       9 UNK         0.0264 
     56 CB         31.7953    4.5580  -11.8696 C.3       9 UNK        -0.1955 
     57 C          32.6764    2.2049  -11.5883 C.2       9 UNK         0.5031 
     58 O          33.7897    2.0913  -12.1034 O.2       9 UNK        -0.5390 
     59 N          31.7414    1.2444  -11.6172 N.am      10 UNK        -0.4204 
     60 CA         31.9554   -0.1028  -12.1486 C.3       10 UNK         0.0237 
     61 CB         30.6492   -0.6327  -12.7637 C.3       10 UNK        -0.1985 
     62 C          32.4655   -1.0509  -11.0527 C.2       10 UNK         0.4970 
     63 O          33.3239   -1.8868  -11.3371 O.2       10 UNK        -0.4914 
     64 N          31.9359   -0.9022   -9.8297 N.am      11 UNK        -0.4285 
     65 CA         32.3567   -1.6375   -8.6295 C.3       11 UNK         0.1007 
     66 C          33.8452   -1.3937   -8.2480 C.2       11 UNK         0.5703 
     67 N          34.3124   -0.1514   -8.2312 N.am      11 UNK        -0.7361 
     68 O          34.5823   -2.3385   -7.9766 O.2       11 UNK        -0.4986 
     69 C69        31.3982   -1.3564   -7.4409 C.3       12 UNK        -0.0947 
     70 S70        31.4634   -2.6480   -6.1557 S.3       12 UNK        -0.2240 
     71 C71        32.5926   -1.8919   -4.9431 C.3       12 UNK         0.0194 
     72 H72        27.3943   -8.9202   -2.1131 H         1 UNK         0.0906 
     73 H73        26.1894   -8.2584   -3.2218 H         1 UNK         0.0906 
     74 H74        27.8780   -7.7640   -3.3554 H         1 UNK         0.0906 
     75 H75        28.2136   -5.7062   -2.5370 H         1 UNK         0.3140 
     76 H76        27.2194   -4.8809    0.0492 H         1 UNK         0.1085 
     77 H77        28.4534   -2.7730   -0.4115 H         1 UNK         0.0836 
     78 H78        28.7340   -3.2568   -2.0652 H         1 UNK         0.0836 
     79 H79        32.2501   -3.4482   -0.0382 H         1 UNK         0.0731 
     80 H80        30.9265   -2.5852    0.7052 H         1 UNK         0.0731 
     81 H81        32.4240   -3.3558   -2.6590 H         1 UNK         0.1312 
     82 H82        31.1341    0.3539   -4.3872 H         1 UNK         0.1406 
     83 H83        30.0827   -0.6135   -0.3426 H         1 UNK         0.1631 
     84 H84        29.8610    1.9242   -3.1113 H         1 UNK         0.0717 
     85 H85        30.1691    1.9045   -1.3935 H         1 UNK         0.0717 
     86 H86        26.1121    2.1538   -2.7738 H         1 UNK         0.0934 
     87 H87        27.5869    3.0515   -3.0346 H         1 UNK         0.0934 
     88 H88        28.2744    1.4933   -4.8308 H         1 UNK         0.0739 
     89 H89        26.2278   -0.2414   -3.8400 H         1 UNK         0.3093 
     90 H90        26.1253   -2.3803   -6.6677 H         1 UNK         0.0818 
     91 H91        27.6961   -2.8866   -4.0871 H         1 UNK         0.0819 
     92 H92        26.9987   -4.1374   -5.1161 H         1 UNK         0.0819 
     93 H93        28.3022   -3.1225   -5.7184 H         1 UNK         0.0819 
     94 H94        25.1485   -2.8113   -4.0468 H         1 UNK         0.3041 
     95 H95        22.4570   -0.5508   -3.9868 H         1 UNK         0.0784 
     96 H96        21.4469   -2.1311   -5.6479 H         1 UNK         0.0793 
     97 H97        22.1037   -3.4986   -4.7590 H         1 UNK         0.0793 
     98 H98        20.8793   -2.4636   -4.0210 H         1 UNK         0.0793 
     99 H99        22.7876   -2.8696   -2.4392 H         1 UNK         0.3024 
    100 H100       24.4433   -1.3331    0.1557 H         1 UNK         0.1171 
    101 H101       23.3036   -3.3687    0.8992 H         1 UNK         0.0786 
    102 H102       22.2266   -2.4962   -0.1712 H         1 UNK         0.0786 
    103 H103       23.0776   -3.9303   -0.7493 H         1 UNK         0.0786 
    104 H104       26.1406   -2.7707    0.3376 H         1 UNK         0.2977 
    105 H105       24.9963    1.1136   -5.8779 H         1 UNK         0.3127 
    106 H106       24.6561    3.8102   -6.9181 H         1 UNK         0.0770 
    107 H107       23.2637    1.2057   -7.7361 H         1 UNK         0.0814 
    108 H108       22.7326    2.8394   -8.0952 H         1 UNK         0.0814 
    109 H109       22.7204    2.2662   -6.4346 H         1 UNK         0.0814 
    110 H110       26.5541    1.0636   -7.8438 H         1 UNK         0.2983 
    111 H111       27.1937    2.2792  -10.4945 H         1 UNK         0.0947 
    112 H112       27.5398   -0.0174  -11.3416 H         1 UNK         0.0806 
    113 H113       25.8889    0.1356  -10.7665 H         1 UNK         0.0806 
    114 H114       27.0898   -0.7051   -9.7855 H         1 UNK         0.0806 
    115 H115       28.3335    2.9852   -7.9709 H         1 UNK         0.3000 
    116 H116       30.5474    1.6055   -7.1205 H         1 UNK         0.0850 
    117 H117       31.3399    3.8295   -6.2144 H         1 UNK         0.0810 
    118 H118       29.6598    3.4901   -5.8598 H         1 UNK         0.0810 
    119 H119       30.0768    4.6269   -7.1426 H         1 UNK         0.0810 
    120 H120       30.4323    3.7557   -9.9280 H         1 UNK         0.3040 
    121 H121       33.2451    3.9072  -10.4273 H         1 UNK         0.0766 
    122 H122       31.6234    5.5223  -11.3911 H         1 UNK         0.0812 
    123 H123       30.8594    4.2376  -12.3293 H         1 UNK         0.0812 
    124 H124       32.5136    4.7219  -12.6743 H         1 UNK         0.0812 
    125 H125       30.8734    1.3900  -11.1121 H         1 UNK         0.3205 
    126 H126       32.7070   -0.0681  -12.9403 H         1 UNK         0.0754 
    127 H127       30.8014   -1.6172  -13.2080 H         1 UNK         0.0769 
    128 H128       30.2870    0.0264  -13.5527 H         1 UNK         0.0769 
    129 H129       29.8581   -0.7317  -12.0200 H         1 UNK         0.0769 
    130 H130       31.1837   -0.2311   -9.7049 H         1 UNK         0.2981 
    131 H131       32.2636   -2.6951   -8.8847 H         1 UNK         0.0541 
    132 H132       33.6979    0.6424   -8.3991 H         1 UNK         0.3459 
    133 H133       35.2780    0.0077   -7.9942 H         1 UNK         0.3459 
    134 H134       31.5918   -0.3786   -7.0010 H         1 UNK         0.0612 
    135 H135       30.3656   -1.3224   -7.7934 H         1 UNK         0.0612 
    136 H136       33.0776   -1.0065   -5.3555 H         1 UNK         0.0624 
    137 H137       33.3972   -2.5993   -4.7365 H         1 UNK         0.0624 
@<TRIPOS>BOND
     1    1    2 1    
     2    1   72 1    
     3    1   73 1    
     4    1   74 1    
     5    2    3 2    
     6    2    4 am   BACKBONE|DICT|INTERRES
     7    4    5 1    
     8    4   75 1    
     9    5    6 1    
    10    5   35 1    
    11    5   76 1    
    12    6    7 1    
    13    6   77 1    
    14    6   78 1    
    15    7    8 1    
    16    8    9 1    
    17    8   79 1    
    18    8   80 1    
    19    9   10 ar   
    20    9   14 ar   
    21   10   11 ar   
    22   10   81 1    
    23   11   12 ar   
    24   11   71 1    
    25   12   13 ar   
    26   12   82 1    
    27   13   14 ar   
    28   13   15 1    
    29   14   83 1    
    30   15   16 1    
    31   15   84 1    
    32   15   85 1    
    33   16   17 1    
    34   17   18 1    
    35   17   86 1    
    36   17   87 1    
    37   18   19 1    
    38   18   37 1    
    39   18   88 1    
    40   19   20 am   BACKBONE|DICT|INTERRES
    41   19   89 1    
    42   20   21 2    
    43   20   22 1    
    44   22   23 1    
    45   22   24 1    
    46   22   90 1    
    47   23   91 1    
    48   23   92 1    
    49   23   93 1    
    50   24   25 am   BACKBONE|DICT|INTERRES
    51   24   94 1    
    52   25   26 2    
    53   25   27 1    
    54   27   28 1    
    55   27   29 1    
    56   27   95 1    
    57   28   96 1    
    58   28   97 1    
    59   28   98 1    
    60   29   30 am   BACKBONE|DICT|INTERRES
    61   29   99 1    
    62   30   31 2    
    63   30   32 1    
    64   32   33 1    
    65   32   34 1    
    66   32  100 1    
    67   33  101 1    
    68   33  102 1    
    69   33  103 1    
    70   34   35 am   BACKBONE|DICT|INTERRES
    71   34  104 1    
    72   35   36 2    
    73   37   38 2    
    74   37   39 am   BACKBONE|DICT|INTERRES
    75   39   40 1    
    76   39  105 1    
    77   40   41 1    
    78   40   42 1    
    79   40  106 1    
    80   41  107 1    
    81   41  108 1    
    82   41  109 1    
    83   42   43 2    
    84   42   44 am   BACKBONE|DICT|INTERRES
    85   44   45 1    
    86   44  110 1    
    87   45   46 1    
    88   45   47 1    
    89   45  111 1    
    90   46  112 1    
    91   46  113 1    
    92   46  114 1    
    93   47   48 2    
    94   47   49 am   BACKBONE|DICT|INTERRES
    95   49   50 1    
    96   49  115 1    
    97   50   51 1    
    98   50   52 1    
    99   50  116 1    
   100   51  117 1    
   101   51  118 1    
   102   51  119 1    
   103   52   53 2    
   104   52   54 am   BACKBONE|DICT|INTERRES
   105   54   55 1    
   106   54  120 1    
   107   55   56 1    
   108   55   57 1    
   109   55  121 1    
   110   56  122 1    
   111   56  123 1    
   112   56  124 1    
   113   57   58 2    
   114   57   59 am   BACKBONE|DICT|INTERRES
   115   59   60 1    
   116   59  125 1    
   117   60   61 1    
   118   60   62 1    
   119   60  126 1    
   120   61  127 1    
   121   61  128 1    
   122   61  129 1    
   123   62   63 2    
   124   62   64 am   BACKBONE|DICT|INTERRES
   125   64   65 1    
   126   64  130 1    
   127   65   66 1    
   128   65   69 1    
   129   65  131 1    
   130   66   67 am   BACKBONE|DICT|INTERRES
   131   66   68 2    
   132   67  132 1    
   133   67  133 1    
   134   69   70 1    
   135   69  134 1    
   136   69  135 1    
   137   70   71 1    
   138   71  136 1    
   139   71  137 1    
@<TRIPOS>SUBSTRUCTURE
     1 UNK         1 GROUP             0       ****    0 ROOT    
