@<TRIPOS>MOLECULE
3R137
137   139    1
SMALL
USER_CHARGES


@<TRIPOS>ATOM
      1 CA         25.5724   -7.5878    0.5358 C.3       0 UNK        -0.2020 
      2 C          25.8625   -6.1059    0.3494 C.2       0 UNK         0.4855 
      3 O          25.5036   -5.2992    1.2081 O.2       0 UNK        -0.5197 
      4 N          26.5179   -5.7431   -0.7599 N.am      1 UNK        -0.4892 
      5 CA         26.8368   -4.3600   -1.1295 C.3       1 UNK         0.0835 
      6 C6         27.8852   -4.3013   -2.2664 C.3       12 UNK        -0.0855 
      7 S7         29.5095   -4.9486   -1.7370 S.3       12 UNK        -0.2931 
      8 C8         30.6259   -4.3519   -3.0627 C.3       12 UNK         0.0378 
      9 C9         30.7907   -2.8329   -3.1827 C.ar      12 UNK        -0.0802 
     10 C10        31.3996   -2.3120   -4.3302 C.ar      12 UNK        -0.0944 
     11 C11        31.5452   -0.9309   -4.5038 C.ar      12 UNK        -0.0787 
     12 C12        31.0596   -0.0593   -3.5261 C.ar      12 UNK        -0.0862 
     13 C13        30.4391   -0.5622   -2.3808 C.ar      12 UNK        -0.0733 
     14 C14        30.3439   -1.9435   -2.1984 C.ar      12 UNK        -0.0832 
     15 C15        29.8328    0.3690   -1.3444 C.3       12 UNK         0.0240 
     16 S16        28.0210    0.1813   -1.3093 S.3       12 UNK        -0.2522 
     17 C17        27.4546    1.5314   -2.3953 C.3       12 UNK        -0.0967 
     18 CA         27.7555    1.3650   -3.9106 C.3       5 UNK         0.0660 
     19 N          27.4501    0.0343   -4.4503 N.am      5 UNK        -0.4015 
     20 C          27.8291   -0.3937   -5.6666 C.2       4 UNK         0.4946 
     21 O          28.5358    0.2607   -6.4325 O.2       4 UNK        -0.5353 
     22 CA         27.2944   -1.7548   -6.1465 C.3       4 UNK         0.0277 
     23 CB         28.2873   -2.8823   -5.8388 C.3       4 UNK        -0.1981 
     24 N          25.9797   -2.0810   -5.5915 N.am      4 UNK        -0.4209 
     25 C          24.8506   -1.4414   -5.9274 C.2       3 UNK         0.4942 
     26 O          24.7958   -0.5425   -6.7655 O.2       3 UNK        -0.5208 
     27 CA         23.5857   -1.8281   -5.1473 C.3       3 UNK         0.0250 
     28 CB         22.9813   -3.1319   -5.6915 C.3       3 UNK        -0.1990 
     29 N          23.8320   -1.9581   -3.7085 N.am      3 UNK        -0.4232 
     30 C          24.2385   -0.9658   -2.9070 C.2       2 UNK         0.4993 
     31 O          24.4719    0.1762   -3.3039 O.2       2 UNK        -0.5286 
     32 CA         24.4561   -1.3062   -1.4241 C.3       2 UNK         0.0209 
     33 CB         23.1393   -1.7110   -0.7309 C.3       2 UNK        -0.1931 
     34 N          25.5238   -2.2902   -1.1877 N.am      2 UNK        -0.4546 
     35 C          25.5621   -3.5870   -1.5296 C.2       1 UNK         0.5154 
     36 O          24.6717   -4.1617   -2.1627 O.2       1 UNK        -0.5181 
     37 C          27.0194    2.4588   -4.7067 C.2       5 UNK         0.5014 
     38 O          27.6298    3.4668   -5.0640 O.2       5 UNK        -0.5248 
     39 N          25.7241    2.2281   -4.9713 N.am      6 UNK        -0.4434 
     40 CA         24.8646    3.1006   -5.7717 C.3       6 UNK         0.0363 
     41 CB         23.4044    2.6364   -5.6480 C.3       6 UNK        -0.1936 
     42 C          25.2953    3.1697   -7.2463 C.2       6 UNK         0.5081 
     43 O          25.2928    4.2580   -7.8225 O.2       6 UNK        -0.5248 
     44 N          25.6634    2.0182   -7.8271 N.am      7 UNK        -0.4718 
     45 CA         26.1712    1.9119   -9.1969 C.3       7 UNK         0.0273 
     46 CB         26.2006    0.4370   -9.6281 C.3       7 UNK        -0.1935 
     47 C          27.5600    2.5457   -9.3731 C.2       7 UNK         0.5018 
     48 O          27.8036    3.1742  -10.4040 O.2       7 UNK        -0.5186 
     49 N          28.4487    2.3449   -8.3872 N.am      8 UNK        -0.4240 
     50 CA         29.8410    2.8073   -8.2761 C.3       8 UNK         0.0235 
     51 CB         29.9293    4.3448   -8.2799 C.3       8 UNK        -0.2000 
     52 C          30.8085    2.1899   -9.3024 C.2       8 UNK         0.4941 
     53 O          31.9153    1.8020   -8.9269 O.2       8 UNK        -0.5273 
     54 N          30.3712    2.0666  -10.5633 N.am      9 UNK        -0.4262 
     55 CA         31.1051    1.5084  -11.7056 C.3       9 UNK         0.0264 
     56 CB         30.2224    1.6007  -12.9602 C.3       9 UNK        -0.1955 
     57 C          31.6064    0.0661  -11.5084 C.2       9 UNK         0.5031 
     58 O          32.5831   -0.3220  -12.1500 O.2       9 UNK        -0.5390 
     59 N          30.9742   -0.6823  -10.5931 N.am      10 UNK        -0.4204 
     60 CA         31.4023   -2.0019  -10.1200 C.3       10 UNK         0.0237 
     61 CB         30.3648   -2.5248   -9.1127 C.3       10 UNK        -0.1985 
     62 C          32.8143   -2.0173   -9.4977 C.2       10 UNK         0.4970 
     63 O          33.4743   -3.0558   -9.5457 O.2       10 UNK        -0.4914 
     64 N          33.2538   -0.8762   -8.9506 N.am      11 UNK        -0.4285 
     65 CA         34.6151   -0.6467   -8.4471 C.3       11 UNK         0.1007 
     66 C          35.5867   -0.0852   -9.5286 C.2       11 UNK         0.5703 
     67 N          35.1816    0.0975  -10.7809 N.am      11 UNK        -0.7361 
     68 O          36.7514    0.1712   -9.2320 O.2       11 UNK        -0.4986 
     69 C69        34.5892    0.2363   -7.1699 C.3       12 UNK        -0.0947 
     70 S70        34.0067   -0.6796   -5.7062 S.3       12 UNK        -0.2240 
     71 C71        32.2139   -0.3808   -5.7537 C.3       12 UNK         0.0194 
     72 H72        25.9582   -8.1864   -0.2893 H         1 UNK         0.0906 
     73 H73        26.0296   -7.9469    1.4575 H         1 UNK         0.0906 
     74 H74        24.4974   -7.7539    0.6012 H         1 UNK         0.0906 
     75 H75        26.7826   -6.4458   -1.4352 H         1 UNK         0.3140 
     76 H76        27.2590   -3.8728   -0.2472 H         1 UNK         0.1085 
     77 H77        28.0140   -3.2685   -2.5891 H         1 UNK         0.0836 
     78 H78        27.5472   -4.8592   -3.1420 H         1 UNK         0.0836 
     79 H79        30.2692   -4.7519   -4.0131 H         1 UNK         0.0731 
     80 H80        31.6116   -4.7887   -2.8971 H         1 UNK         0.0731 
     81 H81        31.7629   -2.9830   -5.0969 H         1 UNK         0.1312 
     82 H82        31.1520    1.0090   -3.6649 H         1 UNK         0.1406 
     83 H83        29.8774   -2.3112   -1.2960 H         1 UNK         0.1631 
     84 H84        30.1034    1.4089   -1.5327 H         1 UNK         0.0717 
     85 H85        30.2340    0.1180   -0.3614 H         1 UNK         0.0717 
     86 H86        26.3811    1.6295   -2.2244 H         1 UNK         0.0934 
     87 H87        27.8889    2.4648   -2.0318 H         1 UNK         0.0934 
     88 H88        28.8232    1.5321   -4.0570 H         1 UNK         0.0739 
     89 H89        26.8516   -0.5478   -3.8858 H         1 UNK         0.3093 
     90 H90        27.1914   -1.6975   -7.2318 H         1 UNK         0.0818 
     91 H91        28.4430   -2.9964   -4.7699 H         1 UNK         0.0819 
     92 H92        27.9463   -3.8378   -6.2374 H         1 UNK         0.0819 
     93 H93        29.2605   -2.6753   -6.2830 H         1 UNK         0.0819 
     94 H94        25.9318   -2.8173   -4.9029 H         1 UNK         0.3041 
     95 H95        22.8559   -1.0278   -5.2875 H         1 UNK         0.0784 
     96 H96        22.7862   -3.0546   -6.7621 H         1 UNK         0.0793 
     97 H97        23.6466   -3.9830   -5.5404 H         1 UNK         0.0793 
     98 H98        22.0319   -3.3598   -5.2063 H         1 UNK         0.0793 
     99 H99        23.7515   -2.8840   -3.2966 H         1 UNK         0.3024 
    100 H100       24.7948   -0.3833   -0.9491 H         1 UNK         0.1171 
    101 H101       23.2849   -1.8472    0.3408 H         1 UNK         0.0786 
    102 H102       22.3802   -0.9379   -0.8578 H         1 UNK         0.0786 
    103 H103       22.7260   -2.6376   -1.1298 H         1 UNK         0.0786 
    104 H104       26.3307   -1.9116   -0.7089 H         1 UNK         0.2977 
    105 H105       25.2888    1.3974   -4.5772 H         1 UNK         0.3127 
    106 H106       24.9373    4.1085   -5.3576 H         1 UNK         0.0770 
    107 H107       23.2679    1.6236   -6.0284 H         1 UNK         0.0814 
    108 H108       22.7383    3.2901   -6.2125 H         1 UNK         0.0814 
    109 H109       23.0709    2.6499   -4.6102 H         1 UNK         0.0814 
    110 H110       25.5491    1.1504   -7.3090 H         1 UNK         0.2983 
    111 H111       25.4797    2.4445   -9.8536 H         1 UNK         0.0947 
    112 H112       26.5318    0.3388  -10.6628 H         1 UNK         0.0806 
    113 H113       25.2113   -0.0160   -9.5599 H         1 UNK         0.0806 
    114 H114       26.8803   -0.1502   -9.0107 H         1 UNK         0.0806 
    115 H115       28.1672    1.7332   -7.6245 H         1 UNK         0.3000 
    116 H116       30.1759    2.4650   -7.2952 H         1 UNK         0.0850 
    117 H117       30.9520    4.6752   -8.0937 H         1 UNK         0.0810 
    118 H118       29.3015    4.7757   -7.4995 H         1 UNK         0.0810 
    119 H119       29.6193    4.7717   -9.2340 H         1 UNK         0.0810 
    120 H120       29.4445    2.4432  -10.7544 H         1 UNK         0.3040 
    121 H121       31.9867    2.1343  -11.8575 H         1 UNK         0.0766 
    122 H122       30.7469    1.2191  -13.8376 H         1 UNK         0.0812 
    123 H123       29.9442    2.6327  -13.1749 H         1 UNK         0.0812 
    124 H124       29.3043    1.0219  -12.8505 H         1 UNK         0.0812 
    125 H125       30.1833   -0.2685  -10.1223 H         1 UNK         0.3205 
    126 H126       31.4196   -2.6728  -10.9812 H         1 UNK         0.0754 
    127 H127       30.2463   -1.8420   -8.2709 H         1 UNK         0.0769 
    128 H128       30.6596   -3.4951   -8.7101 H         1 UNK         0.0769 
    129 H129       29.3876   -2.6528   -9.5789 H         1 UNK         0.0769 
    130 H130       32.6630   -0.0507   -8.9777 H         1 UNK         0.2981 
    131 H131       35.0495   -1.6080   -8.1668 H         1 UNK         0.0541 
    132 H132       34.2393   -0.1319  -11.0764 H         1 UNK         0.3459 
    133 H133       35.8394    0.4532  -11.4558 H         1 UNK         0.3459 
    134 H134       33.9842    1.1319   -7.3189 H         1 UNK         0.0612 
    135 H135       35.5903    0.5919   -6.9203 H         1 UNK         0.0612 
    136 H136       31.7818   -0.8589   -6.6323 H         1 UNK         0.0624 
    137 H137       32.0237    0.6887   -5.8569 H         1 UNK         0.0624 
@<TRIPOS>BOND
     1    1    2 1    
     2    1   72 1    
     3    1   73 1    
     4    1   74 1    
     5    2    3 2    
     6    2    4 am   BACKBONE|DICT|INTERRES
     7    4    5 1    
     8    4   75 1    
     9    5    6 1    
    10    5   35 1    
    11    5   76 1    
    12    6    7 1    
    13    6   77 1    
    14    6   78 1    
    15    7    8 1    
    16    8    9 1    
    17    8   79 1    
    18    8   80 1    
    19    9   10 ar   
    20    9   14 ar   
    21   10   11 ar   
    22   10   81 1    
    23   11   12 ar   
    24   11   71 1    
    25   12   13 ar   
    26   12   82 1    
    27   13   14 ar   
    28   13   15 1    
    29   14   83 1    
    30   15   16 1    
    31   15   84 1    
    32   15   85 1    
    33   16   17 1    
    34   17   18 1    
    35   17   86 1    
    36   17   87 1    
    37   18   19 1    
    38   18   37 1    
    39   18   88 1    
    40   19   20 am   BACKBONE|DICT|INTERRES
    41   19   89 1    
    42   20   21 2    
    43   20   22 1    
    44   22   23 1    
    45   22   24 1    
    46   22   90 1    
    47   23   91 1    
    48   23   92 1    
    49   23   93 1    
    50   24   25 am   BACKBONE|DICT|INTERRES
    51   24   94 1    
    52   25   26 2    
    53   25   27 1    
    54   27   28 1    
    55   27   29 1    
    56   27   95 1    
    57   28   96 1    
    58   28   97 1    
    59   28   98 1    
    60   29   30 am   BACKBONE|DICT|INTERRES
    61   29   99 1    
    62   30   31 2    
    63   30   32 1    
    64   32   33 1    
    65   32   34 1    
    66   32  100 1    
    67   33  101 1    
    68   33  102 1    
    69   33  103 1    
    70   34   35 am   BACKBONE|DICT|INTERRES
    71   34  104 1    
    72   35   36 2    
    73   37   38 2    
    74   37   39 am   BACKBONE|DICT|INTERRES
    75   39   40 1    
    76   39  105 1    
    77   40   41 1    
    78   40   42 1    
    79   40  106 1    
    80   41  107 1    
    81   41  108 1    
    82   41  109 1    
    83   42   43 2    
    84   42   44 am   BACKBONE|DICT|INTERRES
    85   44   45 1    
    86   44  110 1    
    87   45   46 1    
    88   45   47 1    
    89   45  111 1    
    90   46  112 1    
    91   46  113 1    
    92   46  114 1    
    93   47   48 2    
    94   47   49 am   BACKBONE|DICT|INTERRES
    95   49   50 1    
    96   49  115 1    
    97   50   51 1    
    98   50   52 1    
    99   50  116 1    
   100   51  117 1    
   101   51  118 1    
   102   51  119 1    
   103   52   53 2    
   104   52   54 am   BACKBONE|DICT|INTERRES
   105   54   55 1    
   106   54  120 1    
   107   55   56 1    
   108   55   57 1    
   109   55  121 1    
   110   56  122 1    
   111   56  123 1    
   112   56  124 1    
   113   57   58 2    
   114   57   59 am   BACKBONE|DICT|INTERRES
   115   59   60 1    
   116   59  125 1    
   117   60   61 1    
   118   60   62 1    
   119   60  126 1    
   120   61  127 1    
   121   61  128 1    
   122   61  129 1    
   123   62   63 2    
   124   62   64 am   BACKBONE|DICT|INTERRES
   125   64   65 1    
   126   64  130 1    
   127   65   66 1    
   128   65   69 1    
   129   65  131 1    
   130   66   67 am   BACKBONE|DICT|INTERRES
   131   66   68 2    
   132   67  132 1    
   133   67  133 1    
   134   69   70 1    
   135   69  134 1    
   136   69  135 1    
   137   70   71 1    
   138   71  136 1    
   139   71  137 1    
@<TRIPOS>SUBSTRUCTURE
     1 UNK         1 GROUP             0       ****    0 ROOT    
