@<TRIPOS>MOLECULE
3R137
137   139    1
SMALL
USER_CHARGES


@<TRIPOS>ATOM
      1 CA         25.6653   -5.0400   -5.1160 C.3       0 UNK        -0.2020 
      2 C          24.6820   -5.4680   -4.0315 C.2       0 UNK         0.4855 
      3 O          23.5979   -5.9413   -4.3652 O.2       0 UNK        -0.5197 
      4 N          24.9873   -5.3418   -2.7311 N.am      1 UNK        -0.4892 
      5 CA         26.1765   -4.7594   -2.0938 C.3       1 UNK         0.0835 
      6 C6         27.4983   -5.5289   -2.3833 C.3       12 UNK        -0.0855 
      7 S7         28.6175   -5.4859   -0.9421 S.3       12 UNK        -0.2931 
      8 C8         30.2657   -5.4248   -1.7257 C.3       12 UNK         0.0378 
      9 C9         30.6852   -4.0500   -2.2474 C.ar      12 UNK        -0.0802 
     10 C10        31.4483   -3.9695   -3.4175 C.ar      12 UNK        -0.0944 
     11 C11        31.9088   -2.7376   -3.8942 C.ar      12 UNK        -0.0787 
     12 C12        31.6077   -1.5785   -3.1747 C.ar      12 UNK        -0.0862 
     13 C13        30.8397   -1.6320   -2.0090 C.ar      12 UNK        -0.0733 
     14 C14        30.3817   -2.8725   -1.5509 C.ar      12 UNK        -0.0832 
     15 C15        30.5492   -0.3603   -1.2177 C.3       12 UNK         0.0240 
     16 S16        29.2437    0.6730   -1.9668 S.3       12 UNK        -0.2522 
     17 C17        30.1710    1.6392   -3.2188 C.3       12 UNK        -0.0967 
     18 CA         29.6247    1.5593   -4.6760 C.3       5 UNK         0.0660 
     19 N          28.9996    0.2784   -5.0032 N.am      5 UNK        -0.4015 
     20 C          29.2472   -0.4659   -6.0893 C.2       4 UNK         0.4946 
     21 O          30.0939   -0.2036   -6.9467 O.2       4 UNK        -0.5353 
     22 CA         28.3566   -1.7005   -6.2965 C.3       4 UNK         0.0277 
     23 CB         28.9647   -2.9560   -5.6643 C.3       4 UNK        -0.1981 
     24 N          26.9990   -1.5114   -5.7888 N.am      4 UNK        -0.4209 
     25 C          26.1257   -0.6305   -6.2962 C.2       3 UNK         0.4942 
     26 O          26.3929    0.1186   -7.2369 O.2       3 UNK        -0.5208 
     27 CA         24.7363   -0.5422   -5.6378 C.3       3 UNK         0.0250 
     28 CB         23.7164   -1.3539   -6.4511 C.3       3 UNK        -0.1990 
     29 N          24.6962   -0.9774   -4.2364 N.am      3 UNK        -0.4232 
     30 C          25.3855   -0.4045   -3.2395 C.2       2 UNK         0.4993 
     31 O          26.1589    0.5361   -3.4004 O.2       2 UNK        -0.5286 
     32 CA         25.2443   -1.0249   -1.8416 C.3       2 UNK         0.0209 
     33 CB         23.9648   -0.5234   -1.1534 C.3       2 UNK        -0.1931 
     34 N          25.2781   -2.4933   -1.8239 N.am      2 UNK        -0.4546 
     35 C          26.2672   -3.2406   -2.3371 C.2       1 UNK         0.5154 
     36 O          27.1826   -2.7767   -3.0146 O.2       1 UNK        -0.5181 
     37 C          28.6780    2.7346   -4.9890 C.2       5 UNK         0.5014 
     38 O          29.1073    3.6739   -5.6582 O.2       5 UNK        -0.5248 
     39 N          27.4250    2.6919   -4.5100 N.am      6 UNK        -0.4434 
     40 CA         26.4814    3.8178   -4.5558 C.3       6 UNK         0.0363 
     41 CB         25.2796    3.5395   -3.6385 C.3       6 UNK        -0.1936 
     42 C          25.9999    4.1756   -5.9693 C.2       6 UNK         0.5081 
     43 O          25.8773    5.3609   -6.2788 O.2       6 UNK        -0.5248 
     44 N          25.7595    3.1568   -6.8047 N.am      7 UNK        -0.4718 
     45 CA         25.4547    3.3160   -8.2314 C.3       7 UNK         0.0273 
     46 CB         24.3030    2.3703   -8.6184 C.3       7 UNK        -0.1935 
     47 C          26.7028    3.0748   -9.1015 C.2       7 UNK         0.5018 
     48 O          26.5935    3.1059  -10.3278 O.2       7 UNK        -0.5186 
     49 N          27.8557    2.8379   -8.4536 N.am      8 UNK        -0.4240 
     50 CA         29.1793    2.5656   -9.0198 C.3       8 UNK         0.0235 
     51 CB         29.7332    3.8293   -9.7123 C.3       8 UNK        -0.2000 
     52 C          29.2206    1.3210   -9.9271 C.2       8 UNK         0.4941 
     53 O          30.0233    1.2823  -10.8613 O.2       8 UNK        -0.5273 
     54 N          28.3710    0.3197   -9.6444 N.am      9 UNK        -0.4262 
     55 CA         28.2015   -0.8724  -10.4819 C.3       9 UNK         0.0264 
     56 CB         26.9086   -1.6102  -10.0915 C.3       9 UNK        -0.1955 
     57 C          29.4148   -1.8243  -10.5213 C.2       9 UNK         0.5031 
     58 O          29.4639   -2.6652  -11.4211 O.2       9 UNK        -0.5390 
     59 N          30.3735   -1.6798   -9.5936 N.am      10 UNK        -0.4204 
     60 CA         31.6529   -2.3988   -9.6308 C.3       10 UNK         0.0237 
     61 CB         31.5374   -3.7540   -8.9114 C.3       10 UNK        -0.1985 
     62 C          32.8271   -1.5728   -9.0834 C.2       10 UNK         0.4970 
     63 O          33.9320   -1.6966   -9.6124 O.2       10 UNK        -0.4914 
     64 N          32.5852   -0.7528   -8.0539 N.am      11 UNK        -0.4285 
     65 CA         33.5860    0.1014   -7.3931 C.3       11 UNK         0.1007 
     66 C          33.5437    1.5793   -7.8818 C.2       11 UNK         0.5703 
     67 N          32.7753    1.9259   -8.9076 N.am      11 UNK        -0.7361 
     68 O          34.2439    2.4304   -7.3386 O.2       11 UNK        -0.4986 
     69 C69        33.4695   -0.0128   -5.8467 C.3       12 UNK        -0.0947 
     70 S70        34.1360   -1.5912   -5.2078 S.3       12 UNK        -0.2240 
     71 C71        32.6722   -2.6772   -5.2156 C.3       12 UNK         0.0194 
     72 H72        25.8770   -3.9760   -5.0596 H         1 UNK         0.0906 
     73 H73        26.5967   -5.5982   -5.0446 H         1 UNK         0.0906 
     74 H74        25.2472   -5.2340   -6.1036 H         1 UNK         0.0906 
     75 H75        24.2884   -5.6576   -2.0720 H         1 UNK         0.3140 
     76 H76        25.9740   -4.8657   -1.0262 H         1 UNK         0.1085 
     77 H77        28.0151   -5.1517   -3.2675 H         1 UNK         0.0836 
     78 H78        27.2855   -6.5793   -2.5874 H         1 UNK         0.0836 
     79 H79        30.2973   -6.1666   -2.5254 H         1 UNK         0.0731 
     80 H80        31.0042   -5.7416   -0.9883 H         1 UNK         0.0731 
     81 H81        31.6823   -4.8731   -3.9639 H         1 UNK         0.1312 
     82 H82        31.9779   -0.6309   -3.5235 H         1 UNK         0.1406 
     83 H83        29.8021   -2.9228   -0.6397 H         1 UNK         0.1631 
     84 H84        31.4637    0.2231   -1.1012 H         1 UNK         0.0717 
     85 H85        30.2338   -0.6190   -0.2059 H         1 UNK         0.0717 
     86 H86        30.2164    2.6733   -2.8701 H         1 UNK         0.0934 
     87 H87        31.2128    1.3271   -3.2137 H         1 UNK         0.0934 
     88 H88        30.4844    1.6988   -5.3356 H         1 UNK         0.0739 
     89 H89        28.2849   -0.0337   -4.3575 H         1 UNK         0.3093 
     90 H90        28.2945   -1.8742   -7.3690 H         1 UNK         0.0818 
     91 H91        29.1502   -2.8172   -4.6002 H         1 UNK         0.0819 
     92 H92        28.3148   -3.8217   -5.7827 H         1 UNK         0.0819 
     93 H93        29.9122   -3.2098   -6.1301 H         1 UNK         0.0819 
     94 H94        26.7587   -2.0195   -4.9452 H         1 UNK         0.3041 
     95 H95        24.4354    0.5070   -5.6638 H         1 UNK         0.0784 
     96 H96        23.9442   -2.4206   -6.4369 H         1 UNK         0.0793 
     97 H97        23.7080   -1.0367   -7.4951 H         1 UNK         0.0793 
     98 H98        22.7049   -1.2202   -6.0671 H         1 UNK         0.0793 
     99 H99        24.0937   -1.7564   -4.0139 H         1 UNK         0.3024 
    100 H100       26.1019   -0.6783   -1.2599 H         1 UNK         0.1171 
    101 H101       23.9185   -0.8505   -0.1145 H         1 UNK         0.0786 
    102 H102       23.9267    0.5672   -1.1483 H         1 UNK         0.0786 
    103 H103       23.0658   -0.8788   -1.6585 H         1 UNK         0.0786 
    104 H104       24.5369   -2.9558   -1.3170 H         1 UNK         0.2977 
    105 H105       27.1054    1.8685   -3.9963 H         1 UNK         0.3127 
    106 H106       27.0035    4.6919   -4.1602 H         1 UNK         0.0770 
    107 H107       24.6828    2.7000   -3.9964 H         1 UNK         0.0814 
    108 H108       24.6203    4.4069   -3.5873 H         1 UNK         0.0814 
    109 H109       25.5992    3.3143   -2.6209 H         1 UNK         0.0814 
    110 H110       25.9061    2.2076   -6.4847 H         1 UNK         0.2983 
    111 H111       25.1238    4.3368   -8.4341 H         1 UNK         0.0947 
    112 H112       23.9816    2.5519   -9.6448 H         1 UNK         0.0806 
    113 H113       23.4338    2.5196   -7.9779 H         1 UNK         0.0806 
    114 H114       24.5903    1.3217   -8.5556 H         1 UNK         0.0806 
    115 H115       27.8242    2.8776   -7.4441 H         1 UNK         0.3000 
    116 H116       29.8311    2.3400   -8.1742 H         1 UNK         0.0850 
    117 H117       30.7618    3.6833  -10.0418 H         1 UNK         0.0810 
    118 H118       29.7311    4.6832   -9.0347 H         1 UNK         0.0810 
    119 H119       29.1476    4.0966  -10.5924 H         1 UNK         0.0810 
    120 H120       27.7444    0.4152   -8.8512 H         1 UNK         0.3040 
    121 H121       28.0663   -0.5161  -11.5055 H         1 UNK         0.0766 
    122 H122       26.0466   -0.9435  -10.1266 H         1 UNK         0.0812 
    123 H123       26.9556   -2.0378   -9.0926 H         1 UNK         0.0812 
    124 H124       26.7085   -2.4310  -10.7814 H         1 UNK         0.0812 
    125 H125       30.2531   -0.9684   -8.8816 H         1 UNK         0.3205 
    126 H126       31.9033   -2.6004  -10.6750 H         1 UNK         0.0754 
    127 H127       30.7802   -4.3861   -9.3754 H         1 UNK         0.0769 
    128 H128       31.2759   -3.6347   -7.8629 H         1 UNK         0.0769 
    129 H129       32.4817   -4.2987   -8.9513 H         1 UNK         0.0769 
    130 H130       31.6484   -0.6693   -7.6656 H         1 UNK         0.2981 
    131 H131       34.5857   -0.2408   -7.6662 H         1 UNK         0.0541 
    132 H132       32.2263    1.2407   -9.4010 H         1 UNK         0.3459 
    133 H133       32.7851    2.8838   -9.2174 H         1 UNK         0.3459 
    134 H134       32.4347    0.1229   -5.5343 H         1 UNK         0.0612 
    135 H135       34.0379    0.7749   -5.3495 H         1 UNK         0.0612 
    136 H136       31.9897   -2.3473   -5.9945 H         1 UNK         0.0624 
    137 H137       33.0049   -3.6756   -5.5032 H         1 UNK         0.0624 
@<TRIPOS>BOND
     1    1    2 1    
     2    1   72 1    
     3    1   73 1    
     4    1   74 1    
     5    2    3 2    
     6    2    4 am   BACKBONE|DICT|INTERRES
     7    4    5 1    
     8    4   75 1    
     9    5    6 1    
    10    5   35 1    
    11    5   76 1    
    12    6    7 1    
    13    6   77 1    
    14    6   78 1    
    15    7    8 1    
    16    8    9 1    
    17    8   79 1    
    18    8   80 1    
    19    9   10 ar   
    20    9   14 ar   
    21   10   11 ar   
    22   10   81 1    
    23   11   12 ar   
    24   11   71 1    
    25   12   13 ar   
    26   12   82 1    
    27   13   14 ar   
    28   13   15 1    
    29   14   83 1    
    30   15   16 1    
    31   15   84 1    
    32   15   85 1    
    33   16   17 1    
    34   17   18 1    
    35   17   86 1    
    36   17   87 1    
    37   18   19 1    
    38   18   37 1    
    39   18   88 1    
    40   19   20 am   BACKBONE|DICT|INTERRES
    41   19   89 1    
    42   20   21 2    
    43   20   22 1    
    44   22   23 1    
    45   22   24 1    
    46   22   90 1    
    47   23   91 1    
    48   23   92 1    
    49   23   93 1    
    50   24   25 am   BACKBONE|DICT|INTERRES
    51   24   94 1    
    52   25   26 2    
    53   25   27 1    
    54   27   28 1    
    55   27   29 1    
    56   27   95 1    
    57   28   96 1    
    58   28   97 1    
    59   28   98 1    
    60   29   30 am   BACKBONE|DICT|INTERRES
    61   29   99 1    
    62   30   31 2    
    63   30   32 1    
    64   32   33 1    
    65   32   34 1    
    66   32  100 1    
    67   33  101 1    
    68   33  102 1    
    69   33  103 1    
    70   34   35 am   BACKBONE|DICT|INTERRES
    71   34  104 1    
    72   35   36 2    
    73   37   38 2    
    74   37   39 am   BACKBONE|DICT|INTERRES
    75   39   40 1    
    76   39  105 1    
    77   40   41 1    
    78   40   42 1    
    79   40  106 1    
    80   41  107 1    
    81   41  108 1    
    82   41  109 1    
    83   42   43 2    
    84   42   44 am   BACKBONE|DICT|INTERRES
    85   44   45 1    
    86   44  110 1    
    87   45   46 1    
    88   45   47 1    
    89   45  111 1    
    90   46  112 1    
    91   46  113 1    
    92   46  114 1    
    93   47   48 2    
    94   47   49 am   BACKBONE|DICT|INTERRES
    95   49   50 1    
    96   49  115 1    
    97   50   51 1    
    98   50   52 1    
    99   50  116 1    
   100   51  117 1    
   101   51  118 1    
   102   51  119 1    
   103   52   53 2    
   104   52   54 am   BACKBONE|DICT|INTERRES
   105   54   55 1    
   106   54  120 1    
   107   55   56 1    
   108   55   57 1    
   109   55  121 1    
   110   56  122 1    
   111   56  123 1    
   112   56  124 1    
   113   57   58 2    
   114   57   59 am   BACKBONE|DICT|INTERRES
   115   59   60 1    
   116   59  125 1    
   117   60   61 1    
   118   60   62 1    
   119   60  126 1    
   120   61  127 1    
   121   61  128 1    
   122   61  129 1    
   123   62   63 2    
   124   62   64 am   BACKBONE|DICT|INTERRES
   125   64   65 1    
   126   64  130 1    
   127   65   66 1    
   128   65   69 1    
   129   65  131 1    
   130   66   67 am   BACKBONE|DICT|INTERRES
   131   66   68 2    
   132   67  132 1    
   133   67  133 1    
   134   69   70 1    
   135   69  134 1    
   136   69  135 1    
   137   70   71 1    
   138   71  136 1    
   139   71  137 1    
@<TRIPOS>SUBSTRUCTURE
     1 UNK         1 GROUP             0       ****    0 ROOT    
