@<TRIPOS>MOLECULE
3R137
137   139    1
SMALL
USER_CHARGES


@<TRIPOS>ATOM
      1 CA         29.7957   -0.7315   -2.7826 C.3       0 UNK        -0.2020 
      2 C          29.9208   -1.0796   -1.3016 C.2       0 UNK         0.4855 
      3 O          30.5033   -0.3044   -0.5468 O.2       0 UNK        -0.5197 
      4 N          29.3948   -2.2188   -0.8283 N.am      1 UNK        -0.4892 
      5 CA         28.6334   -3.2329   -1.5757 C.3       1 UNK         0.0835 
      6 C6         28.5692   -4.5867   -0.8171 C.3       12 UNK        -0.0855 
      7 S7         30.1941   -5.2035   -0.2517 S.3       12 UNK        -0.2931 
      8 C8         30.6605   -6.3488   -1.5893 C.3       12 UNK         0.0378 
      9 C9         30.9432   -5.6048   -2.8851 C.ar      12 UNK        -0.0802 
     10 C10        32.0857   -4.8068   -2.9981 C.ar      12 UNK        -0.0944 
     11 C11        32.3312   -4.0824   -4.1673 C.ar      12 UNK        -0.0787 
     12 C12        31.4330   -4.1727   -5.2335 C.ar      12 UNK        -0.0862 
     13 C13        30.2910   -4.9714   -5.1350 C.ar      12 UNK        -0.0733 
     14 C14        30.0546   -5.6930   -3.9611 C.ar      12 UNK        -0.0832 
     15 C15        29.3057   -5.0455   -6.2919 C.3       12 UNK         0.0240 
     16 S16        27.7453   -4.1988   -5.8947 S.3       12 UNK        -0.2522 
     17 C17        28.2612   -2.4493   -5.7975 C.3       12 UNK        -0.0967 
     18 CA         27.4196   -1.5655   -6.7416 C.3       5 UNK         0.0660 
     19 N          26.0010   -1.5673   -6.3736 N.am      5 UNK        -0.4015 
     20 C          25.0092   -1.2372   -7.2098 C.2       4 UNK         0.4946 
     21 O          25.1859   -0.8830   -8.3752 O.2       4 UNK        -0.5353 
     22 CA         23.5833   -1.2727   -6.6365 C.3       4 UNK         0.0277 
     23 CB         23.0804   -2.7201   -6.5110 C.3       4 UNK        -0.1981 
     24 N          23.4755   -0.5963   -5.3411 N.am      4 UNK        -0.4209 
     25 C          23.7059    0.7105   -5.1502 C.2       3 UNK         0.4942 
     26 O          24.0151    1.4878   -6.0502 O.2       3 UNK        -0.5208 
     27 CA         23.6021    1.2495   -3.7154 C.3       3 UNK         0.0250 
     28 CB         22.1773    1.7549   -3.4380 C.3       3 UNK        -0.1990 
     29 N          23.9937    0.2994   -2.6711 N.am      3 UNK        -0.4232 
     30 C          25.1864   -0.3030   -2.5606 C.2       2 UNK         0.4993 
     31 O          26.0921   -0.1911   -3.3936 O.2       2 UNK        -0.5286 
     32 CA         25.3797   -1.1344   -1.2766 C.3       2 UNK         0.0209 
     33 CB         24.2536   -2.1750   -1.0755 C.3       2 UNK        -0.1931 
     34 N          26.7013   -1.7652   -1.1738 N.am      2 UNK        -0.4546 
     35 C          27.1996   -2.7667   -1.9147 C.2       1 UNK         0.5154 
     36 O          26.5786   -3.3335   -2.8127 O.2       1 UNK        -0.5181 
     37 C          27.9802   -0.1325   -6.8397 C.2       5 UNK         0.5014 
     38 O          28.8728    0.1109   -7.6556 O.2       5 UNK        -0.5248 
     39 N          27.4302    0.8015   -6.0481 N.am      6 UNK        -0.4434 
     40 CA         27.7076    2.2343   -6.1677 C.3       6 UNK         0.0363 
     41 CB         27.1184    2.9892   -4.9668 C.3       6 UNK        -0.1936 
     42 C          27.1906    2.8100   -7.4991 C.2       6 UNK         0.5081 
     43 O          27.9438    3.4955   -8.1890 O.2       6 UNK        -0.5248 
     44 N          25.9431    2.4809   -7.8685 N.am      7 UNK        -0.4718 
     45 CA         25.3164    2.8560   -9.1425 C.3       7 UNK         0.0273 
     46 CB         23.8259    2.4831   -9.1186 C.3       7 UNK        -0.1935 
     47 C          26.0084    2.2340  -10.3673 C.2       7 UNK         0.5018 
     48 O          26.0989    2.8894  -11.4058 O.2       7 UNK        -0.5186 
     49 N          26.5245    1.0060  -10.2135 N.am      8 UNK        -0.4240 
     50 CA         27.3699    0.3200  -11.1967 C.3       8 UNK         0.0235 
     51 CB         27.4495   -1.1737  -10.8406 C.3       8 UNK        -0.2000 
     52 C          28.7879    0.9147  -11.3274 C.2       8 UNK         0.4941 
     53 O          29.5157    0.5041  -12.2324 O.2       8 UNK        -0.5273 
     54 N          29.1555    1.8526  -10.4396 N.am      9 UNK        -0.4262 
     55 CA         30.4375    2.5564  -10.3577 C.3       9 UNK         0.0264 
     56 CB         30.6716    3.4347  -11.6063 C.3       9 UNK        -0.1955 
     57 C          31.6142    1.6171  -10.0387 C.2       9 UNK         0.5031 
     58 O          32.6717    1.7233  -10.6652 O.2       9 UNK        -0.5390 
     59 N          31.4114    0.7210   -9.0615 N.am      10 UNK        -0.4204 
     60 CA         32.4523   -0.1378   -8.4943 C.3       10 UNK         0.0237 
     61 CB         31.8118   -1.4595   -8.0241 C.3       10 UNK        -0.1985 
     62 C          33.2275    0.6168   -7.3914 C.2       10 UNK         0.4970 
     63 O          33.6413    1.7574   -7.6066 O.2       10 UNK        -0.4914 
     64 N          33.4228   -0.0211   -6.2308 N.am      11 UNK        -0.4285 
     65 CA         34.1038    0.5494   -5.0561 C.3       11 UNK         0.1007 
     66 C          33.3264    1.6796   -4.3134 C.2       11 UNK         0.5703 
     67 N          32.0602    1.9359   -4.6233 N.am      11 UNK        -0.7361 
     68 O          33.8921    2.3465   -3.4500 O.2       11 UNK        -0.4986 
     69 C69        34.5928   -0.5629   -4.0895 C.3       12 UNK        -0.0947 
     70 S70        33.2381   -1.5980   -3.4386 S.3       12 UNK        -0.2240 
     71 C71        33.5512   -3.1830   -4.2694 C.3       12 UNK         0.0194 
     72 H72        30.1358   -1.5525   -3.4125 H         1 UNK         0.0906 
     73 H73        28.7674   -0.4806   -3.0390 H         1 UNK         0.0906 
     74 H74        30.4145    0.1336   -3.0190 H         1 UNK         0.0906 
     75 H75        29.5404   -2.4401    0.1469 H         1 UNK         0.3140 
     76 H76        29.1400   -3.4107   -2.5251 H         1 UNK         0.1085 
     77 H77        27.9366   -4.4947    0.0682 H         1 UNK         0.0836 
     78 H78        28.0975   -5.3495   -1.4401 H         1 UNK         0.0836 
     79 H79        29.8749   -7.0939   -1.7244 H         1 UNK         0.0731 
     80 H80        31.5542   -6.8977   -1.2891 H         1 UNK         0.0731 
     81 H81        32.7693   -4.7272   -2.1636 H         1 UNK         0.1312 
     82 H82        31.6171   -3.6144   -6.1388 H         1 UNK         0.1406 
     83 H83        29.1641   -6.3020   -3.8806 H         1 UNK         0.1631 
     84 H84        29.0928   -6.0917   -6.5160 H         1 UNK         0.0717 
     85 H85        29.7295   -4.6168   -7.2015 H         1 UNK         0.0717 
     86 H86        28.1546   -2.1160   -4.7655 H         1 UNK         0.0934 
     87 H87        29.3209   -2.3691   -6.0404 H         1 UNK         0.0934 
     88 H88        27.5004   -1.9959   -7.7413 H         1 UNK         0.0739 
     89 H89        25.7832   -1.8255   -5.4208 H         1 UNK         0.3093 
     90 H90        22.9342   -0.7466   -7.3401 H         1 UNK         0.0818 
     91 H91        23.1443   -3.2382   -7.4691 H         1 UNK         0.0819 
     92 H92        23.6651   -3.2943   -5.7910 H         1 UNK         0.0819 
     93 H93        22.0367   -2.7516   -6.1976 H         1 UNK         0.0819 
     94 H94        23.2277   -1.1616   -4.5424 H         1 UNK         0.3041 
     95 H95        24.2804    2.1008   -3.6406 H         1 UNK         0.0784 
     96 H96        21.8686    2.4834   -4.1895 H         1 UNK         0.0793 
     97 H97        21.4492    0.9428   -3.4536 H         1 UNK         0.0793 
     98 H98        22.1114    2.2482   -2.4680 H         1 UNK         0.0793 
     99 H99        23.3155    0.1480   -1.9384 H         1 UNK         0.3024 
    100 H100       25.3299   -0.4257   -0.4479 H         1 UNK         0.1171 
    101 H101       24.4459   -2.8020   -0.2047 H         1 UNK         0.0786 
    102 H102       23.2883   -1.6959   -0.9103 H         1 UNK         0.0786 
    103 H103       24.1446   -2.8314   -1.9396 H         1 UNK         0.0786 
    104 H104       27.3205   -1.3633   -0.4832 H         1 UNK         0.2977 
    105 H105       26.7399    0.5189   -5.3611 H         1 UNK         0.3127 
    106 H106       28.7919    2.3649   -6.1462 H         1 UNK         0.0770 
    107 H107       26.0298    2.9586   -4.9634 H         1 UNK         0.0814 
    108 H108       27.4115    4.0395   -4.9895 H         1 UNK         0.0814 
    109 H109       27.4700    2.5728   -4.0224 H         1 UNK         0.0814 
    110 H110       25.3589    1.9557   -7.2196 H         1 UNK         0.2983 
    111 H111       25.3947    3.9408   -9.2412 H         1 UNK         0.0947 
    112 H112       23.3366    2.7615  -10.0530 H         1 UNK         0.0806 
    113 H113       23.3022    2.9978   -8.3128 H         1 UNK         0.0806 
    114 H114       23.6811    1.4111   -8.9791 H         1 UNK         0.0806 
    115 H115       26.3141    0.4997   -9.3586 H         1 UNK         0.3000 
    116 H116       26.8901    0.4120  -12.1733 H         1 UNK         0.0850 
    117 H117       27.9759   -1.7319  -11.6159 H         1 UNK         0.0810 
    118 H118       26.4582   -1.6161  -10.7405 H         1 UNK         0.0810 
    119 H119       27.9884   -1.3326   -9.9072 H         1 UNK         0.0810 
    120 H120       28.4870    2.1141   -9.7238 H         1 UNK         0.3040 
    121 H121       30.3558    3.2287   -9.5024 H         1 UNK         0.0766 
    122 H122       30.8217    2.8346  -12.5042 H         1 UNK         0.0812 
    123 H123       31.5572    4.0590  -11.4826 H         1 UNK         0.0812 
    124 H124       29.8281    4.1016  -11.7848 H         1 UNK         0.0812 
    125 H125       30.4985    0.6774   -8.6138 H         1 UNK         0.3205 
    126 H126       33.1747   -0.3852   -9.2749 H         1 UNK         0.0754 
    127 H127       32.5751   -2.1855   -7.7422 H         1 UNK         0.0769 
    128 H128       31.2237   -1.9151   -8.8215 H         1 UNK         0.0769 
    129 H129       31.1476   -1.3109   -7.1727 H         1 UNK         0.0769 
    130 H130       33.0387   -0.9446   -6.1080 H         1 UNK         0.2981 
    131 H131       35.0037    1.0387   -5.4335 H         1 UNK         0.0541 
    132 H132       31.5786    2.6771   -4.1407 H         1 UNK         0.3459 
    133 H133       31.5930    1.4070   -5.3399 H         1 UNK         0.3459 
    134 H134       35.1289   -0.1293   -3.2434 H         1 UNK         0.0612 
    135 H135       35.3208   -1.1968   -4.5977 H         1 UNK         0.0612 
    136 H136       34.4162   -3.6670   -3.8133 H         1 UNK         0.0624 
    137 H137       33.8061   -3.0097   -5.3159 H         1 UNK         0.0624 
@<TRIPOS>BOND
     1    1    2 1    
     2    1   72 1    
     3    1   73 1    
     4    1   74 1    
     5    2    3 2    
     6    2    4 am   BACKBONE|DICT|INTERRES
     7    4    5 1    
     8    4   75 1    
     9    5    6 1    
    10    5   35 1    
    11    5   76 1    
    12    6    7 1    
    13    6   77 1    
    14    6   78 1    
    15    7    8 1    
    16    8    9 1    
    17    8   79 1    
    18    8   80 1    
    19    9   10 ar   
    20    9   14 ar   
    21   10   11 ar   
    22   10   81 1    
    23   11   12 ar   
    24   11   71 1    
    25   12   13 ar   
    26   12   82 1    
    27   13   14 ar   
    28   13   15 1    
    29   14   83 1    
    30   15   16 1    
    31   15   84 1    
    32   15   85 1    
    33   16   17 1    
    34   17   18 1    
    35   17   86 1    
    36   17   87 1    
    37   18   19 1    
    38   18   37 1    
    39   18   88 1    
    40   19   20 am   BACKBONE|DICT|INTERRES
    41   19   89 1    
    42   20   21 2    
    43   20   22 1    
    44   22   23 1    
    45   22   24 1    
    46   22   90 1    
    47   23   91 1    
    48   23   92 1    
    49   23   93 1    
    50   24   25 am   BACKBONE|DICT|INTERRES
    51   24   94 1    
    52   25   26 2    
    53   25   27 1    
    54   27   28 1    
    55   27   29 1    
    56   27   95 1    
    57   28   96 1    
    58   28   97 1    
    59   28   98 1    
    60   29   30 am   BACKBONE|DICT|INTERRES
    61   29   99 1    
    62   30   31 2    
    63   30   32 1    
    64   32   33 1    
    65   32   34 1    
    66   32  100 1    
    67   33  101 1    
    68   33  102 1    
    69   33  103 1    
    70   34   35 am   BACKBONE|DICT|INTERRES
    71   34  104 1    
    72   35   36 2    
    73   37   38 2    
    74   37   39 am   BACKBONE|DICT|INTERRES
    75   39   40 1    
    76   39  105 1    
    77   40   41 1    
    78   40   42 1    
    79   40  106 1    
    80   41  107 1    
    81   41  108 1    
    82   41  109 1    
    83   42   43 2    
    84   42   44 am   BACKBONE|DICT|INTERRES
    85   44   45 1    
    86   44  110 1    
    87   45   46 1    
    88   45   47 1    
    89   45  111 1    
    90   46  112 1    
    91   46  113 1    
    92   46  114 1    
    93   47   48 2    
    94   47   49 am   BACKBONE|DICT|INTERRES
    95   49   50 1    
    96   49  115 1    
    97   50   51 1    
    98   50   52 1    
    99   50  116 1    
   100   51  117 1    
   101   51  118 1    
   102   51  119 1    
   103   52   53 2    
   104   52   54 am   BACKBONE|DICT|INTERRES
   105   54   55 1    
   106   54  120 1    
   107   55   56 1    
   108   55   57 1    
   109   55  121 1    
   110   56  122 1    
   111   56  123 1    
   112   56  124 1    
   113   57   58 2    
   114   57   59 am   BACKBONE|DICT|INTERRES
   115   59   60 1    
   116   59  125 1    
   117   60   61 1    
   118   60   62 1    
   119   60  126 1    
   120   61  127 1    
   121   61  128 1    
   122   61  129 1    
   123   62   63 2    
   124   62   64 am   BACKBONE|DICT|INTERRES
   125   64   65 1    
   126   64  130 1    
   127   65   66 1    
   128   65   69 1    
   129   65  131 1    
   130   66   67 am   BACKBONE|DICT|INTERRES
   131   66   68 2    
   132   67  132 1    
   133   67  133 1    
   134   69   70 1    
   135   69  134 1    
   136   69  135 1    
   137   70   71 1    
   138   71  136 1    
   139   71  137 1    
@<TRIPOS>SUBSTRUCTURE
     1 UNK         1 GROUP             0       ****    0 ROOT    
