@<TRIPOS>MOLECULE
3R137
137   139    1
SMALL
USER_CHARGES


@<TRIPOS>ATOM
      1 CA         25.9123   -6.1824   -0.2728 C.3       0 UNK        -0.2020 
      2 C          27.2160   -5.5076   -0.6888 C.2       0 UNK         0.4855 
      3 O          28.0289   -6.1298   -1.3698 O.2       0 UNK        -0.5197 
      4 N          27.4764   -4.2494   -0.3081 N.am      1 UNK        -0.4892 
      5 CA         26.6063   -3.3229    0.4315 C.3       1 UNK         0.0835 
      6 C6         27.3929   -2.0819    0.9318 C.3       12 UNK        -0.0855 
      7 S7         28.2945   -1.2040   -0.3973 S.3       12 UNK        -0.2931 
      8 C8         29.9764   -1.8520   -0.1625 C.3       12 UNK         0.0378 
      9 C9         30.7490   -1.8878   -1.4715 C.ar      12 UNK        -0.0802 
     10 C10        31.6818   -0.8897   -1.7664 C.ar      12 UNK        -0.0944 
     11 C11        32.4650   -0.9675   -2.9223 C.ar      12 UNK        -0.0787 
     12 C12        32.2981   -2.0513   -3.7906 C.ar      12 UNK        -0.0862 
     13 C13        31.3363   -3.0323   -3.5310 C.ar      12 UNK        -0.0733 
     14 C14        30.5678   -2.9474   -2.3668 C.ar      12 UNK        -0.0832 
     15 C15        31.1633   -4.2105   -4.4809 C.3       12 UNK         0.0240 
     16 S16        30.5558   -3.7077   -6.1226 S.3       12 UNK        -0.2522 
     17 C17        28.8198   -3.2572   -5.7782 C.3       12 UNK        -0.0967 
     18 CA         28.2890   -2.2316   -6.8127 C.3       5 UNK         0.0660 
     19 N          26.8310   -2.1933   -6.8698 N.am      5 UNK        -0.4015 
     20 C          26.1380   -1.9259   -7.9859 C.2       4 UNK         0.4946 
     21 O          26.6499   -1.7824   -9.0954 O.2       4 UNK        -0.5353 
     22 CA         24.6181   -1.7313   -7.8327 C.3       4 UNK         0.0277 
     23 CB         23.8957   -3.0877   -7.8495 C.3       4 UNK        -0.1981 
     24 N          24.2558   -0.9982   -6.6185 N.am      4 UNK        -0.4209 
     25 C          24.7204    0.2135   -6.2786 C.2       3 UNK         0.4942 
     26 O          25.4233    0.9067   -7.0125 O.2       3 UNK        -0.5208 
     27 CA         24.4089    0.7126   -4.8582 C.3       3 UNK         0.0250 
     28 CB         23.2236    1.6898   -4.8821 C.3       3 UNK        -0.1990 
     29 N          24.1360   -0.3662   -3.9011 N.am      3 UNK        -0.4232 
     30 C          24.9959   -1.3359   -3.5576 C.2       2 UNK         0.4993 
     31 O          26.1438   -1.4401   -4.0065 O.2       2 UNK        -0.5286 
     32 CA         24.4433   -2.4186   -2.6282 C.3       2 UNK         0.0209 
     33 CB         23.9883   -3.6416   -3.4442 C.3       2 UNK        -0.1931 
     34 N          25.4917   -2.8260   -1.7017 N.am      2 UNK        -0.4546 
     35 C          25.3570   -2.9035   -0.3718 C.2       1 UNK         0.5154 
     36 O          24.3019   -2.6862    0.2260 O.2       1 UNK        -0.5181 
     37 C          28.8325   -0.8153   -6.5610 C.2       5 UNK         0.5014 
     38 O          29.6053   -0.3075   -7.3733 O.2       5 UNK        -0.5248 
     39 N          28.4285   -0.2098   -5.4363 N.am      6 UNK        -0.4434 
     40 CA         29.0670    0.9844   -4.8810 C.3       6 UNK         0.0363 
     41 CB         28.5641    1.2014   -3.4470 C.3       6 UNK        -0.1936 
     42 C          28.9135    2.2711   -5.7094 C.2       6 UNK         0.5081 
     43 O          29.8078    3.1154   -5.6517 O.2       6 UNK        -0.5248 
     44 N          27.8001    2.4209   -6.4389 N.am      7 UNK        -0.4718 
     45 CA         27.4719    3.6357   -7.1879 C.3       7 UNK         0.0273 
     46 CB         26.1556    4.2323   -6.6597 C.3       7 UNK        -0.1935 
     47 C          27.3878    3.3688   -8.6940 C.2       7 UNK         0.5018 
     48 O          28.0321    4.0857   -9.4589 O.2       7 UNK        -0.5186 
     49 N          26.6029    2.3601   -9.1016 N.am      8 UNK        -0.4240 
     50 CA         26.3255    2.0609  -10.5109 C.3       8 UNK         0.0235 
     51 CB         25.1105    1.1297  -10.6328 C.3       8 UNK        -0.2000 
     52 C          27.5490    1.4923  -11.2447 C.2       8 UNK         0.4941 
     53 O          27.9298    2.0294  -12.2851 O.2       8 UNK        -0.5273 
     54 N          28.1698    0.4500  -10.6735 N.am      9 UNK        -0.4262 
     55 CA         29.4457   -0.0963  -11.1504 C.3       9 UNK         0.0264 
     56 CB         29.5632   -1.5710  -10.7336 C.3       9 UNK        -0.1955 
     57 C          30.6634    0.7041  -10.6499 C.2       9 UNK         0.5031 
     58 O          31.7759    0.4363  -11.1059 O.2       9 UNK        -0.5390 
     59 N          30.4460    1.6407   -9.7124 N.am      10 UNK        -0.4204 
     60 CA         31.4351    2.5085   -9.0595 C.3       10 UNK         0.0237 
     61 CB         31.9421    3.5789  -10.0482 C.3       10 UNK        -0.1985 
     62 C          32.5747    1.7143   -8.3903 C.2       10 UNK         0.4970 
     63 O          33.7452    2.0732   -8.5319 O.2       10 UNK        -0.4914 
     64 N          32.1965    0.6267   -7.7083 N.am      11 UNK        -0.4285 
     65 CA         33.0646   -0.3834   -7.0877 C.3       11 UNK         0.1007 
     66 C          33.8138   -1.3068   -8.0961 C.2       11 UNK         0.5703 
     67 N          33.5605   -1.2399   -9.3985 N.am      11 UNK        -0.7361 
     68 O          34.6240   -2.1345   -7.6855 O.2       11 UNK        -0.4986 
     69 C69        34.0127    0.1892   -5.9931 C.3       12 UNK        -0.0947 
     70 S70        33.1389    1.0979   -4.6704 S.3       12 UNK        -0.2240 
     71 C71        33.5204    0.0960   -3.1972 C.3       12 UNK         0.0194 
     72 H72        25.0797   -5.8090   -0.8683 H         1 UNK         0.0906 
     73 H73        25.9766   -7.2602   -0.4306 H         1 UNK         0.0906 
     74 H74        25.6935   -6.0219    0.7825 H         1 UNK         0.0906 
     75 H75        28.3499   -3.8396   -0.5994 H         1 UNK         0.3140 
     76 H76        26.2424   -3.8450    1.3190 H         1 UNK         0.1085 
     77 H77        26.7219   -1.3721    1.4206 H         1 UNK         0.0836 
     78 H78        28.0981   -2.3834    1.7083 H         1 UNK         0.0836 
     79 H79        30.4934   -1.2363    0.5754 H         1 UNK         0.0731 
     80 H80        29.9442   -2.8585    0.2567 H         1 UNK         0.0731 
     81 H81        31.8186   -0.0671   -1.0777 H         1 UNK         0.1312 
     82 H82        32.9186   -2.1378   -4.6701 H         1 UNK         0.1406 
     83 H83        29.8460   -3.7217   -2.1476 H         1 UNK         0.1631 
     84 H84        30.4862   -4.9579   -4.0638 H         1 UNK         0.0717 
     85 H85        32.1267   -4.7072   -4.6034 H         1 UNK         0.0717 
     86 H86        28.2337   -4.1761   -5.8304 H         1 UNK         0.0934 
     87 H87        28.7133   -2.8923   -4.7547 H         1 UNK         0.0934 
     88 H88        28.6523   -2.5530   -7.7903 H         1 UNK         0.0739 
     89 H89        26.3451   -2.2160   -5.9817 H         1 UNK         0.3093 
     90 H90        24.2641   -1.1479   -8.6833 H         1 UNK         0.0818 
     91 H91        22.8130   -2.9616   -7.8302 H         1 UNK         0.0819 
     92 H92        24.1376   -3.6458   -8.7553 H         1 UNK         0.0819 
     93 H93        24.1773   -3.7097   -6.9988 H         1 UNK         0.0819 
     94 H94        23.6635   -1.4789   -5.9584 H         1 UNK         0.3041 
     95 H95        25.2905    1.2520   -4.5069 H         1 UNK         0.0784 
     96 H96        23.4086    2.5133   -5.5733 H         1 UNK         0.0793 
     97 H97        22.3016    1.2008   -5.1993 H         1 UNK         0.0793 
     98 H98        23.0513    2.1292   -3.8993 H         1 UNK         0.0793 
     99 H99        23.2123   -0.3705   -3.4916 H         1 UNK         0.3024 
    100 H100       23.5871   -2.0127   -2.0831 H         1 UNK         0.1171 
    101 H101       23.1963   -3.3761   -4.1457 H         1 UNK         0.0786 
    102 H102       23.5938   -4.4232   -2.7945 H         1 UNK         0.0786 
    103 H103       24.8087   -4.0719   -4.0215 H         1 UNK         0.0786 
    104 H104       26.4123   -2.9372   -2.1061 H         1 UNK         0.2977 
    105 H105       27.7394   -0.6708   -4.8476 H         1 UNK         0.3127 
    106 H106       30.1373    0.7741   -4.8243 H         1 UNK         0.0770 
    107 H107       27.4842    1.3459   -3.4116 H         1 UNK         0.0814 
    108 H108       29.0299    2.0782   -2.9952 H         1 UNK         0.0814 
    109 H109       28.8107    0.3474   -2.8174 H         1 UNK         0.0814 
    110 H110       27.1170    1.6704   -6.4740 H         1 UNK         0.2983 
    111 H111       28.2463    4.3932   -7.0471 H         1 UNK         0.0947 
    112 H112       25.9102    5.1569   -7.1839 H         1 UNK         0.0806 
    113 H113       26.2288    4.4716   -5.5988 H         1 UNK         0.0806 
    114 H114       25.3138    3.5529   -6.7906 H         1 UNK         0.0806 
    115 H115       26.1108    1.8084   -8.3996 H         1 UNK         0.3000 
    116 H116       26.0622    3.0032  -10.9969 H         1 UNK         0.0850 
    117 H117       24.8213    1.0066  -11.6772 H         1 UNK         0.0810 
    118 H118       24.2464    1.5269  -10.0997 H         1 UNK         0.0810 
    119 H119       25.3222    0.1381  -10.2403 H         1 UNK         0.0810 
    120 H120       27.7569    0.0059   -9.8610 H         1 UNK         0.3040 
    121 H121       29.4598   -0.0585  -12.2418 H         1 UNK         0.0766 
    122 H122       30.4494   -2.0307  -11.1731 H         1 UNK         0.0812 
    123 H123       28.6999   -2.1500  -11.0619 H         1 UNK         0.0812 
    124 H124       29.6497   -1.6768   -9.6538 H         1 UNK         0.0812 
    125 H125       29.4949    1.7458   -9.3909 H         1 UNK         0.3205 
    126 H126       30.9091    3.0242   -8.2546 H         1 UNK         0.0754 
    127 H127       32.5968    4.2946   -9.5494 H         1 UNK         0.0769 
    128 H128       31.1134    4.1429  -10.4767 H         1 UNK         0.0769 
    129 H129       32.5068    3.1353  -10.8691 H         1 UNK         0.0769 
    130 H130       31.2033    0.3990   -7.6686 H         1 UNK         0.2981 
    131 H131       32.3643   -1.0530   -6.5898 H         1 UNK         0.0541 
    132 H132       34.0531   -1.8597  -10.0210 H         1 UNK         0.3459 
    133 H133       32.9115   -0.5612   -9.7812 H         1 UNK         0.3459 
    134 H134       34.7467    0.8630   -6.4360 H         1 UNK         0.0612 
    135 H135       34.5958   -0.6147   -5.5427 H         1 UNK         0.0612 
    136 H136       34.5016   -0.3706   -3.2911 H         1 UNK         0.0624 
    137 H137       33.5979    0.7756   -2.3473 H         1 UNK         0.0624 
@<TRIPOS>BOND
     1    1    2 1    
     2    1   72 1    
     3    1   73 1    
     4    1   74 1    
     5    2    3 2    
     6    2    4 am   BACKBONE|DICT|INTERRES
     7    4    5 1    
     8    4   75 1    
     9    5    6 1    
    10    5   35 1    
    11    5   76 1    
    12    6    7 1    
    13    6   77 1    
    14    6   78 1    
    15    7    8 1    
    16    8    9 1    
    17    8   79 1    
    18    8   80 1    
    19    9   10 ar   
    20    9   14 ar   
    21   10   11 ar   
    22   10   81 1    
    23   11   12 ar   
    24   11   71 1    
    25   12   13 ar   
    26   12   82 1    
    27   13   14 ar   
    28   13   15 1    
    29   14   83 1    
    30   15   16 1    
    31   15   84 1    
    32   15   85 1    
    33   16   17 1    
    34   17   18 1    
    35   17   86 1    
    36   17   87 1    
    37   18   19 1    
    38   18   37 1    
    39   18   88 1    
    40   19   20 am   BACKBONE|DICT|INTERRES
    41   19   89 1    
    42   20   21 2    
    43   20   22 1    
    44   22   23 1    
    45   22   24 1    
    46   22   90 1    
    47   23   91 1    
    48   23   92 1    
    49   23   93 1    
    50   24   25 am   BACKBONE|DICT|INTERRES
    51   24   94 1    
    52   25   26 2    
    53   25   27 1    
    54   27   28 1    
    55   27   29 1    
    56   27   95 1    
    57   28   96 1    
    58   28   97 1    
    59   28   98 1    
    60   29   30 am   BACKBONE|DICT|INTERRES
    61   29   99 1    
    62   30   31 2    
    63   30   32 1    
    64   32   33 1    
    65   32   34 1    
    66   32  100 1    
    67   33  101 1    
    68   33  102 1    
    69   33  103 1    
    70   34   35 am   BACKBONE|DICT|INTERRES
    71   34  104 1    
    72   35   36 2    
    73   37   38 2    
    74   37   39 am   BACKBONE|DICT|INTERRES
    75   39   40 1    
    76   39  105 1    
    77   40   41 1    
    78   40   42 1    
    79   40  106 1    
    80   41  107 1    
    81   41  108 1    
    82   41  109 1    
    83   42   43 2    
    84   42   44 am   BACKBONE|DICT|INTERRES
    85   44   45 1    
    86   44  110 1    
    87   45   46 1    
    88   45   47 1    
    89   45  111 1    
    90   46  112 1    
    91   46  113 1    
    92   46  114 1    
    93   47   48 2    
    94   47   49 am   BACKBONE|DICT|INTERRES
    95   49   50 1    
    96   49  115 1    
    97   50   51 1    
    98   50   52 1    
    99   50  116 1    
   100   51  117 1    
   101   51  118 1    
   102   51  119 1    
   103   52   53 2    
   104   52   54 am   BACKBONE|DICT|INTERRES
   105   54   55 1    
   106   54  120 1    
   107   55   56 1    
   108   55   57 1    
   109   55  121 1    
   110   56  122 1    
   111   56  123 1    
   112   56  124 1    
   113   57   58 2    
   114   57   59 am   BACKBONE|DICT|INTERRES
   115   59   60 1    
   116   59  125 1    
   117   60   61 1    
   118   60   62 1    
   119   60  126 1    
   120   61  127 1    
   121   61  128 1    
   122   61  129 1    
   123   62   63 2    
   124   62   64 am   BACKBONE|DICT|INTERRES
   125   64   65 1    
   126   64  130 1    
   127   65   66 1    
   128   65   69 1    
   129   65  131 1    
   130   66   67 am   BACKBONE|DICT|INTERRES
   131   66   68 2    
   132   67  132 1    
   133   67  133 1    
   134   69   70 1    
   135   69  134 1    
   136   69  135 1    
   137   70   71 1    
   138   71  136 1    
   139   71  137 1    
@<TRIPOS>SUBSTRUCTURE
     1 UNK         1 GROUP             0       ****    0 ROOT    
