@<TRIPOS>MOLECULE
3R137
137   139    1
SMALL
USER_CHARGES


@<TRIPOS>ATOM
      1 CA         27.7998    3.5350    0.6939 C.3       0 UNK        -0.2020 
      2 C          27.6195    2.4018   -0.3052 C.2       0 UNK         0.4855 
      3 O          26.9513    2.5844   -1.3217 O.2       0 UNK        -0.5197 
      4 N          28.2179    1.2376   -0.0288 N.am      1 UNK        -0.4892 
      5 CA         28.1100    0.0243   -0.8447 C.3       1 UNK         0.0835 
      6 C6         29.2008   -1.0059   -0.4597 C.3       12 UNK        -0.0855 
      7 S7         30.8224   -0.5929   -1.1818 S.3       12 UNK        -0.2931 
      8 C8         31.6790   -2.1972   -1.0390 C.3       12 UNK         0.0378 
      9 C9         31.6803   -3.0051   -2.3350 C.ar      12 UNK        -0.0802 
     10 C10        32.8969   -3.3951   -2.9052 C.ar      12 UNK        -0.0944 
     11 C11        32.9266   -4.1969   -4.0503 C.ar      12 UNK        -0.0787 
     12 C12        31.7243   -4.6011   -4.6374 C.ar      12 UNK        -0.0862 
     13 C13        30.5007   -4.1996   -4.0949 C.ar      12 UNK        -0.0733 
     14 C14        30.4851   -3.4115   -2.9404 C.ar      12 UNK        -0.0832 
     15 C15        29.1961   -4.6327   -4.7489 C.3       12 UNK         0.0240 
     16 S16        28.8535   -3.6875   -6.2654 S.3       12 UNK        -0.2522 
     17 C17        28.5343   -2.0219   -5.5958 C.3       12 UNK        -0.0967 
     18 CA         27.8445   -1.1098   -6.6373 C.3       5 UNK         0.0660 
     19 N          26.5470   -1.6423   -7.0739 N.am      5 UNK        -0.4015 
     20 C          25.7705   -1.1282   -8.0358 C.2       4 UNK         0.4946 
     21 O          26.0312   -0.0857   -8.6357 O.2       4 UNK        -0.5353 
     22 CA         24.4655   -1.8706   -8.3737 C.3       4 UNK         0.0277 
     23 CB         24.7360   -3.1381   -9.2084 C.3       4 UNK        -0.1981 
     24 N          23.6226   -2.1395   -7.2002 N.am      4 UNK        -0.4209 
     25 C          23.8591   -2.9701   -6.1757 C.2       3 UNK         0.4942 
     26 O          24.8125   -3.7504   -6.1158 O.2       3 UNK        -0.5208 
     27 CA         22.8773   -2.8721   -4.9931 C.3       3 UNK         0.0250 
     28 CB         21.9048   -4.0627   -5.0051 C.3       3 UNK        -0.1990 
     29 N          23.5403   -2.8021   -3.6839 N.am      3 UNK        -0.4232 
     30 C          24.5565   -1.9909   -3.3535 C.2       2 UNK         0.4993 
     31 O          25.0849   -1.1954   -4.1355 O.2       2 UNK        -0.5286 
     32 CA         25.0728   -2.0783   -1.9090 C.3       2 UNK         0.0209 
     33 CB         25.3824   -3.5283   -1.4833 C.3       2 UNK        -0.1931 
     34 N          26.2895   -1.2780   -1.8008 N.am      2 UNK        -0.4546 
     35 C          26.7169   -0.6246   -0.7170 C.2       1 UNK         0.5154 
     36 O          26.1054   -0.5870    0.3543 O.2       1 UNK        -0.5181 
     37 C          27.7623    0.3436   -6.1277 C.2       5 UNK         0.5014 
     38 O          28.6581    1.1338   -6.4205 O.2       5 UNK        -0.5248 
     39 N          26.6793    0.6917   -5.4182 N.am      6 UNK        -0.4434 
     40 CA         26.3909    2.0490   -4.9443 C.3       6 UNK         0.0363 
     41 CB         25.1469    2.0170   -4.0421 C.3       6 UNK        -0.1936 
     42 C          26.1925    3.0743   -6.0764 C.2       6 UNK         0.5081 
     43 O          26.5131    4.2478   -5.8862 O.2       6 UNK        -0.5248 
     44 N          25.6685    2.6234   -7.2244 N.am      7 UNK        -0.4718 
     45 CA         25.4684    3.4466   -8.4176 C.3       7 UNK         0.0273 
     46 CB         24.2426    2.9367   -9.1937 C.3       7 UNK        -0.1935 
     47 C          26.7167    3.4493   -9.3117 C.2       7 UNK         0.5018 
     48 O          27.0937    4.5053   -9.8208 O.2       7 UNK        -0.5186 
     49 N          27.3303    2.2712   -9.4903 N.am      8 UNK        -0.4240 
     50 CA         28.5127    2.0624  -10.3278 C.3       8 UNK         0.0235 
     51 CB         28.6857    0.5566  -10.5860 C.3       8 UNK        -0.2000 
     52 C          29.8075    2.6473   -9.7407 C.2       8 UNK         0.4941 
     53 O          30.7346    2.9152  -10.5063 O.2       8 UNK        -0.5273 
     54 N          29.8807    2.7835   -8.4079 N.am      9 UNK        -0.4262 
     55 CA         31.0233    3.2002   -7.5791 C.3       9 UNK         0.0264 
     56 CB         31.5419    4.6007   -7.9608 C.3       9 UNK        -0.1955 
     57 C          32.1597    2.1616   -7.5368 C.2       9 UNK         0.5031 
     58 O          32.6877    1.8855   -6.4584 O.2       9 UNK        -0.5390 
     59 N          32.4973    1.5882   -8.6964 N.am      10 UNK        -0.4204 
     60 CA         33.3338    0.4006   -8.8471 C.3       10 UNK         0.0237 
     61 CB         33.8231    0.3310  -10.3039 C.3       10 UNK        -0.1985 
     62 C          32.5558   -0.8751   -8.4746 C.2       10 UNK         0.4970 
     63 O          31.3236   -0.8622   -8.4257 O.2       10 UNK        -0.4914 
     64 N          33.3001   -1.9651   -8.2607 N.am      11 UNK        -0.4285 
     65 CA         32.7774   -3.2975   -7.9122 C.3       11 UNK         0.1007 
     66 C          31.9520   -4.0074   -9.0285 C.2       11 UNK         0.5703 
     67 N          31.9249   -3.5137  -10.2611 N.am      11 UNK        -0.7361 
     68 O          31.3318   -5.0360   -8.7711 O.2       11 UNK        -0.4986 
     69 C69        33.9120   -4.2290   -7.4081 C.3       12 UNK        -0.0947 
     70 S70        34.8219   -3.5584   -5.9742 S.3       12 UNK        -0.2240 
     71 C71        34.2600   -4.6474   -4.6287 C.3       12 UNK         0.0194 
     72 H72        26.8312    3.8508    1.0806 H         1 UNK         0.0906 
     73 H73        28.2688    4.3909    0.2092 H         1 UNK         0.0906 
     74 H74        28.4226    3.2402    1.5384 H         1 UNK         0.0906 
     75 H75        28.7425    1.1409    0.8287 H         1 UNK         0.3140 
     76 H76        28.2444    0.3115   -1.8909 H         1 UNK         0.1085 
     77 H77        28.9271   -2.0096   -0.7844 H         1 UNK         0.0836 
     78 H78        29.3027   -1.0762    0.6251 H         1 UNK         0.0836 
     79 H79        32.7028   -1.9966   -0.7193 H         1 UNK         0.0731 
     80 H80        31.2330   -2.7943   -0.2423 H         1 UNK         0.0731 
     81 H81        33.8278   -3.0919   -2.4453 H         1 UNK         0.1312 
     82 H82        31.7365   -5.2224   -5.5224 H         1 UNK         0.1406 
     83 H83        29.5362   -3.1229   -2.5175 H         1 UNK         0.1631 
     84 H84        28.3567   -4.5302   -4.0592 H         1 UNK         0.0717 
     85 H85        29.2537   -5.6923   -5.0022 H         1 UNK         0.0717 
     86 H86        27.9226   -2.1076   -4.6959 H         1 UNK         0.0934 
     87 H87        29.4924   -1.5975   -5.2867 H         1 UNK         0.0934 
     88 H88        28.4815   -1.0858   -7.5240 H         1 UNK         0.0739 
     89 H89        26.2250   -2.4913   -6.6172 H         1 UNK         0.3093 
     90 H90        23.8812   -1.1948   -9.0008 H         1 UNK         0.0818 
     91 H91        25.2606   -2.8871  -10.1312 H         1 UNK         0.0819 
     92 H92        25.3540   -3.8613   -8.6757 H         1 UNK         0.0819 
     93 H93        23.8065   -3.6336   -9.4886 H         1 UNK         0.0819 
     94 H94        22.8129   -1.5386   -7.1255 H         1 UNK         0.3041 
     95 H95        22.2962   -1.9537   -5.0984 H         1 UNK         0.0784 
     96 H96        21.3783   -4.1289   -5.9584 H         1 UNK         0.0793 
     97 H97        22.4271   -5.0088   -4.8557 H         1 UNK         0.0793 
     98 H98        21.1483   -3.9687   -4.2257 H         1 UNK         0.0793 
     99 H99        23.1910   -3.4354   -2.9802 H         1 UNK         0.3024 
    100 H100       24.3018   -1.6591   -1.2584 H         1 UNK         0.1171 
    101 H101       24.4819   -4.1425   -1.4612 H         1 UNK         0.0786 
    102 H102       26.0896   -4.0043   -2.1641 H         1 UNK         0.0786 
    103 H103       25.8113   -3.5635   -0.4815 H         1 UNK         0.0786 
    104 H104       26.7902   -1.1795   -2.6733 H         1 UNK         0.2977 
    105 H105       26.0084   -0.0308   -5.1554 H         1 UNK         0.3127 
    106 H106       27.2413    2.3795   -4.3440 H         1 UNK         0.0770 
    107 H107       24.2678    1.6558   -4.5770 H         1 UNK         0.0814 
    108 H108       24.9158    3.0123   -3.6601 H         1 UNK         0.0814 
    109 H109       25.3015    1.3719   -3.1773 H         1 UNK         0.0814 
    110 H110       25.4898    1.6319   -7.3200 H         1 UNK         0.2983 
    111 H111       25.2694    4.4786   -8.1191 H         1 UNK         0.0947 
    112 H112       24.0633    3.5458  -10.0808 H         1 UNK         0.0806 
    113 H113       23.3410    2.9822   -8.5828 H         1 UNK         0.0806 
    114 H114       24.3694    1.9061   -9.5271 H         1 UNK         0.0806 
    115 H115       26.9144    1.4386   -9.0749 H         1 UNK         0.3000 
    116 H116       28.3378    2.5556  -11.2863 H         1 UNK         0.0850 
    117 H117       29.5341    0.3659  -11.2447 H         1 UNK         0.0810 
    118 H118       27.8022    0.1296  -11.0609 H         1 UNK         0.0810 
    119 H119       28.8652    0.0090   -9.6600 H         1 UNK         0.0810 
    120 H120       29.1099    2.4029   -7.8654 H         1 UNK         0.3040 
    121 H121       30.6275    3.2660   -6.5642 H         1 UNK         0.0766 
    122 H122       31.9978    4.6160   -8.9509 H         1 UNK         0.0812 
    123 H123       32.3004    4.9368   -7.2528 H         1 UNK         0.0812 
    124 H124       30.7379    5.3366   -7.9496 H         1 UNK         0.0812 
    125 H125       31.9871    1.8997   -9.5189 H         1 UNK         0.3205 
    126 H126       34.1963    0.4911   -8.1833 H         1 UNK         0.0754 
    127 H127       34.4896   -0.5183  -10.4594 H         1 UNK         0.0769 
    128 H128       34.3791    1.2283  -10.5770 H         1 UNK         0.0769 
    129 H129       32.9922    0.2282  -11.0036 H         1 UNK         0.0769 
    130 H130       34.3046   -1.8960   -8.3282 H         1 UNK         0.2981 
    131 H131       32.0789   -3.1489   -7.0868 H         1 UNK         0.0541 
    132 H132       31.3870   -3.9874  -10.9691 H         1 UNK         0.3459 
    133 H133       32.4232   -2.6684  -10.4845 H         1 UNK         0.3459 
    134 H134       34.6353   -4.4016   -8.2071 H         1 UNK         0.0612 
    135 H135       33.5187   -5.2136   -7.1508 H         1 UNK         0.0612 
    136 H136       34.1963   -5.6792   -4.9772 H         1 UNK         0.0624 
    137 H137       35.0211   -4.6450   -3.8469 H         1 UNK         0.0624 
@<TRIPOS>BOND
     1    1    2 1    
     2    1   72 1    
     3    1   73 1    
     4    1   74 1    
     5    2    3 2    
     6    2    4 am   BACKBONE|DICT|INTERRES
     7    4    5 1    
     8    4   75 1    
     9    5    6 1    
    10    5   35 1    
    11    5   76 1    
    12    6    7 1    
    13    6   77 1    
    14    6   78 1    
    15    7    8 1    
    16    8    9 1    
    17    8   79 1    
    18    8   80 1    
    19    9   10 ar   
    20    9   14 ar   
    21   10   11 ar   
    22   10   81 1    
    23   11   12 ar   
    24   11   71 1    
    25   12   13 ar   
    26   12   82 1    
    27   13   14 ar   
    28   13   15 1    
    29   14   83 1    
    30   15   16 1    
    31   15   84 1    
    32   15   85 1    
    33   16   17 1    
    34   17   18 1    
    35   17   86 1    
    36   17   87 1    
    37   18   19 1    
    38   18   37 1    
    39   18   88 1    
    40   19   20 am   BACKBONE|DICT|INTERRES
    41   19   89 1    
    42   20   21 2    
    43   20   22 1    
    44   22   23 1    
    45   22   24 1    
    46   22   90 1    
    47   23   91 1    
    48   23   92 1    
    49   23   93 1    
    50   24   25 am   BACKBONE|DICT|INTERRES
    51   24   94 1    
    52   25   26 2    
    53   25   27 1    
    54   27   28 1    
    55   27   29 1    
    56   27   95 1    
    57   28   96 1    
    58   28   97 1    
    59   28   98 1    
    60   29   30 am   BACKBONE|DICT|INTERRES
    61   29   99 1    
    62   30   31 2    
    63   30   32 1    
    64   32   33 1    
    65   32   34 1    
    66   32  100 1    
    67   33  101 1    
    68   33  102 1    
    69   33  103 1    
    70   34   35 am   BACKBONE|DICT|INTERRES
    71   34  104 1    
    72   35   36 2    
    73   37   38 2    
    74   37   39 am   BACKBONE|DICT|INTERRES
    75   39   40 1    
    76   39  105 1    
    77   40   41 1    
    78   40   42 1    
    79   40  106 1    
    80   41  107 1    
    81   41  108 1    
    82   41  109 1    
    83   42   43 2    
    84   42   44 am   BACKBONE|DICT|INTERRES
    85   44   45 1    
    86   44  110 1    
    87   45   46 1    
    88   45   47 1    
    89   45  111 1    
    90   46  112 1    
    91   46  113 1    
    92   46  114 1    
    93   47   48 2    
    94   47   49 am   BACKBONE|DICT|INTERRES
    95   49   50 1    
    96   49  115 1    
    97   50   51 1    
    98   50   52 1    
    99   50  116 1    
   100   51  117 1    
   101   51  118 1    
   102   51  119 1    
   103   52   53 2    
   104   52   54 am   BACKBONE|DICT|INTERRES
   105   54   55 1    
   106   54  120 1    
   107   55   56 1    
   108   55   57 1    
   109   55  121 1    
   110   56  122 1    
   111   56  123 1    
   112   56  124 1    
   113   57   58 2    
   114   57   59 am   BACKBONE|DICT|INTERRES
   115   59   60 1    
   116   59  125 1    
   117   60   61 1    
   118   60   62 1    
   119   60  126 1    
   120   61  127 1    
   121   61  128 1    
   122   61  129 1    
   123   62   63 2    
   124   62   64 am   BACKBONE|DICT|INTERRES
   125   64   65 1    
   126   64  130 1    
   127   65   66 1    
   128   65   69 1    
   129   65  131 1    
   130   66   67 am   BACKBONE|DICT|INTERRES
   131   66   68 2    
   132   67  132 1    
   133   67  133 1    
   134   69   70 1    
   135   69  134 1    
   136   69  135 1    
   137   70   71 1    
   138   71  136 1    
   139   71  137 1    
@<TRIPOS>SUBSTRUCTURE
     1 UNK         1 GROUP             0       ****    0 ROOT    
