@<TRIPOS>MOLECULE
3R137
137   139    1
SMALL
USER_CHARGES


@<TRIPOS>ATOM
      1 CA         26.1280   -0.6058    2.2951 C.3       0 UNK        -0.2020 
      2 C          26.6956   -0.8348    0.9025 C.2       0 UNK         0.4855 
      3 O          26.6731    0.0750    0.0757 O.2       0 UNK        -0.5197 
      4 N          27.1919   -2.0489    0.6323 N.am      1 UNK        -0.4892 
      5 CA         27.8296   -2.4425   -0.6347 C.3       1 UNK         0.0835 
      6 C6         28.8377   -3.6012   -0.4244 C.3       12 UNK        -0.0855 
      7 S7         30.2218   -3.0816    0.6499 S.3       12 UNK        -0.2931 
      8 C8         31.6682   -3.2127   -0.4571 C.3       12 UNK         0.0378 
      9 C9         31.5287   -2.4118   -1.7483 C.ar      12 UNK        -0.0802 
     10 C10        31.6650   -3.0563   -2.9834 C.ar      12 UNK        -0.0944 
     11 C11        31.5550   -2.3379   -4.1774 C.ar      12 UNK        -0.0787 
     12 C12        31.2942   -0.9684   -4.1297 C.ar      12 UNK        -0.0862 
     13 C13        31.1595   -0.3086   -2.9059 C.ar      12 UNK        -0.0733 
     14 C14        31.2890   -1.0326   -1.7158 C.ar      12 UNK        -0.0832 
     15 C15        30.8637    1.1849   -2.8856 C.3       12 UNK         0.0240 
     16 S16        29.1595    1.5820   -2.3639 S.3       12 UNK        -0.2522 
     17 C17        28.1341    0.3107   -3.1814 C.3       12 UNK        -0.0967 
     18 CA         28.0566    0.4099   -4.7184 C.3       5 UNK         0.0660 
     19 N          27.5847   -0.8481   -5.2932 N.am      5 UNK        -0.4015 
     20 C          27.8980   -1.2979   -6.5142 C.2       4 UNK         0.4946 
     21 O          28.6892   -0.7397   -7.2747 O.2       4 UNK        -0.5353 
     22 CA         27.1940   -2.5815   -6.9846 C.3       4 UNK         0.0277 
     23 CB         28.0164   -3.8214   -6.5997 C.3       4 UNK        -0.1981 
     24 N          25.8341   -2.7189   -6.4633 N.am      4 UNK        -0.4209 
     25 C          24.8207   -1.8877   -6.7466 C.2       3 UNK         0.4942 
     26 O          24.9125   -0.9324   -7.5169 O.2       3 UNK        -0.5208 
     27 CA         23.4939   -2.1364   -6.0091 C.3       3 UNK         0.0250 
     28 CB         22.5789   -3.0438   -6.8462 C.3       3 UNK        -0.1990 
     29 N          23.6545   -2.7086   -4.6680 N.am      3 UNK        -0.4232 
     30 C          24.3476   -2.1608   -3.6584 C.2       2 UNK         0.4993 
     31 O          24.9460   -1.0840   -3.7532 O.2       2 UNK        -0.5286 
     32 CA         24.3617   -2.9525   -2.3314 C.3       2 UNK         0.0209 
     33 CB         24.2566   -4.4825   -2.5327 C.3       2 UNK        -0.1931 
     34 N          25.5104   -2.6471   -1.4693 N.am      2 UNK        -0.4546 
     35 C          26.8151   -2.7685   -1.7602 C.2       1 UNK         0.5154 
     36 O          27.2334   -3.1317   -2.8615 O.2       1 UNK        -0.5181 
     37 C          27.1838    1.5837   -5.1865 C.2       5 UNK         0.5014 
     38 O          27.7310    2.6298   -5.5347 O.2       5 UNK        -0.5248 
     39 N          25.8562    1.3844   -5.2431 N.am      6 UNK        -0.4434 
     40 CA         24.8843    2.3775   -5.7236 C.3       6 UNK         0.0363 
     41 CB         23.4580    1.8347   -5.5521 C.3       6 UNK        -0.1936 
     42 C          25.1166    2.8222   -7.1814 C.2       6 UNK         0.5081 
     43 O          24.8256    3.9705   -7.5159 O.2       6 UNK        -0.5248 
     44 N          25.6708    1.9235   -8.0079 N.am      7 UNK        -0.4718 
     45 CA         26.1357    2.1940   -9.3718 C.3       7 UNK         0.0273 
     46 CB         26.5058    0.8576  -10.0376 C.3       7 UNK        -0.1935 
     47 C          27.3257    3.1738   -9.4547 C.2       7 UNK         0.5018 
     48 O          27.5368    3.7549  -10.5193 O.2       7 UNK        -0.5186 
     49 N          28.0721    3.3241   -8.3486 N.am      8 UNK        -0.4240 
     50 CA         29.2684    4.1511   -8.1499 C.3       8 UNK         0.0235 
     51 CB         28.8443    5.6238   -7.9701 C.3       8 UNK        -0.2000 
     52 C          30.3570    3.9749   -9.2361 C.2       8 UNK         0.4941 
     53 O          30.6545    4.9338   -9.9490 O.2       8 UNK        -0.5273 
     54 N          30.9659    2.7923   -9.3951 N.am      9 UNK        -0.4262 
     55 CA         30.7470    1.5269   -8.6994 C.3       9 UNK         0.0264 
     56 CB         31.7354    1.3884   -7.5307 C.3       9 UNK        -0.1955 
     57 C          30.9569    0.4116   -9.7258 C.2       9 UNK         0.5031 
     58 O          31.8446    0.5333  -10.5749 O.2       9 UNK        -0.5390 
     59 N          30.1611   -0.6591   -9.6255 N.am      10 UNK        -0.4204 
     60 CA         30.1805   -1.7885  -10.5626 C.3       10 UNK         0.0237 
     61 CB         28.9402   -2.6671  -10.3445 C.3       10 UNK        -0.1985 
     62 C          31.4613   -2.6340  -10.4705 C.2       10 UNK         0.4970 
     63 O          31.8704   -3.2161  -11.4756 O.2       10 UNK        -0.4914 
     64 N          32.0723   -2.6713   -9.2799 N.am      11 UNK        -0.4285 
     65 CA         33.3763   -3.2981   -9.0278 C.3       11 UNK         0.1007 
     66 C          34.6011   -2.4130   -9.4125 C.2       11 UNK         0.5703 
     67 N          34.4222   -1.1910   -9.9048 N.am      11 UNK        -0.7361 
     68 O          35.7408   -2.8533   -9.2810 O.2       11 UNK        -0.4986 
     69 C69        33.4626   -3.8761   -7.5896 C.3       12 UNK        -0.0947 
     70 S70        33.3402   -2.6323   -6.2572 S.3       12 UNK        -0.2240 
     71 C71        31.7249   -3.0311   -5.5203 C.3       12 UNK         0.0194 
     72 H72        26.2056   -1.4954    2.9198 H         1 UNK         0.0906 
     73 H73        26.6659    0.2026    2.7895 H         1 UNK         0.0906 
     74 H74        25.0769   -0.3261    2.2313 H         1 UNK         0.0906 
     75 H75        27.1893   -2.7574    1.3533 H         1 UNK         0.3140 
     76 H76        28.4043   -1.5845   -0.9813 H         1 UNK         0.1085 
     77 H77        29.2400   -3.9514   -1.3769 H         1 UNK         0.0836 
     78 H78        28.3449   -4.4643    0.0267 H         1 UNK         0.0836 
     79 H79        31.8412   -4.2682   -0.6733 H         1 UNK         0.0731 
     80 H80        32.5519   -2.8634    0.0785 H         1 UNK         0.0731 
     81 H81        31.8653   -4.1185   -3.0173 H         1 UNK         0.1312 
     82 H82        31.2014   -0.4167   -5.0525 H         1 UNK         0.1406 
     83 H83        31.1838   -0.5268   -0.7653 H         1 UNK         0.1631 
     84 H84        31.0346    1.6224   -3.8706 H         1 UNK         0.0717 
     85 H85        31.5623    1.6823   -2.2116 H         1 UNK         0.0717 
     86 H86        28.5523   -0.6592   -2.9250 H         1 UNK         0.0934 
     87 H87        27.1378    0.3259   -2.7340 H         1 UNK         0.0934 
     88 H88        29.0625    0.5934   -5.0986 H         1 UNK         0.0739 
     89 H89        26.9153   -1.3689   -4.7382 H         1 UNK         0.3093 
     90 H90        27.1170   -2.5345   -8.0717 H         1 UNK         0.0818 
     91 H91        29.0148   -3.7804   -7.0344 H         1 UNK         0.0819 
     92 H92        28.1344   -3.9087   -5.5183 H         1 UNK         0.0819 
     93 H93        27.5486   -4.7369   -6.9620 H         1 UNK         0.0819 
     94 H94        25.6690   -3.4701   -5.8092 H         1 UNK         0.3041 
     95 H95        22.9961   -1.1742   -5.8895 H         1 UNK         0.0784 
     96 H96        22.4230   -2.6271   -7.8426 H         1 UNK         0.0793 
     97 H97        23.0027   -4.0409   -6.9730 H         1 UNK         0.0793 
     98 H98        21.5962   -3.1513   -6.3863 H         1 UNK         0.0793 
     99 H99        23.1912   -3.5903   -4.5008 H         1 UNK         0.3024 
    100 H100       23.4771   -2.6251   -1.7827 H         1 UNK         0.1171 
    101 H101       24.3293   -5.0090   -1.5808 H         1 UNK         0.0786 
    102 H102       23.3010   -4.7698   -2.9725 H         1 UNK         0.0786 
    103 H103       25.0495   -4.8623   -3.1787 H         1 UNK         0.0786 
    104 H104       25.2864   -2.2886   -0.5520 H         1 UNK         0.2977 
    105 H105       25.4826    0.5046   -4.8991 H         1 UNK         0.3127 
    106 H106       24.9916    3.2604   -5.0902 H         1 UNK         0.0770 
    107 H107       23.2486    1.0360   -6.2625 H         1 UNK         0.0814 
    108 H108       22.7233    2.6209   -5.7298 H         1 UNK         0.0814 
    109 H109       23.2884    1.4515   -4.5455 H         1 UNK         0.0814 
    110 H110       25.7696    0.9700   -7.6748 H         1 UNK         0.2983 
    111 H111       25.3076    2.6412   -9.9257 H         1 UNK         0.0947 
    112 H112       27.3060    0.3488   -9.4994 H         1 UNK         0.0806 
    113 H113       26.8457    1.0086  -11.0631 H         1 UNK         0.0806 
    114 H114       25.6498    0.1834  -10.0763 H         1 UNK         0.0806 
    115 H115       27.7740    2.8278   -7.5144 H         1 UNK         0.3000 
    116 H116       29.7153    3.8264   -7.2094 H         1 UNK         0.0850 
    117 H117       28.1446    5.7335   -7.1413 H         1 UNK         0.0810 
    118 H118       28.3643    6.0177   -8.8668 H         1 UNK         0.0810 
    119 H119       29.7054    6.2571   -7.7532 H         1 UNK         0.0810 
    120 H120       31.6281    2.6985  -10.1554 H         1 UNK         0.3040 
    121 H121       29.7318    1.4463   -8.3183 H         1 UNK         0.0766 
    122 H122       31.6689    0.3962   -7.0858 H         1 UNK         0.0812 
    123 H123       31.5305    2.1149   -6.7447 H         1 UNK         0.0812 
    124 H124       32.7673    1.5263   -7.8566 H         1 UNK         0.0812 
    125 H125       29.5107   -0.7090   -8.8389 H         1 UNK         0.3205 
    126 H126       30.1305   -1.3791  -11.5741 H         1 UNK         0.0754 
    127 H127       28.8771   -3.4442  -11.1074 H         1 UNK         0.0769 
    128 H128       28.0208   -2.0838  -10.4005 H         1 UNK         0.0769 
    129 H129       28.9709   -3.1675   -9.3777 H         1 UNK         0.0769 
    130 H130       31.6797   -2.1459   -8.5143 H         1 UNK         0.2981 
    131 H131       33.4514   -4.1603   -9.6930 H         1 UNK         0.0541 
    132 H132       33.4970   -0.8128  -10.0579 H         1 UNK         0.3459 
    133 H133       35.2309   -0.6435  -10.1522 H         1 UNK         0.3459 
    134 H134       32.6821   -4.6265   -7.4566 H         1 UNK         0.0612 
    135 H135       34.4019   -4.4156   -7.4568 H         1 UNK         0.0612 
    136 H136       30.9344   -2.7138   -6.2006 H         1 UNK         0.0624 
    137 H137       31.6276   -4.1114   -5.4024 H         1 UNK         0.0624 
@<TRIPOS>BOND
     1    1    2 1    
     2    1   72 1    
     3    1   73 1    
     4    1   74 1    
     5    2    3 2    
     6    2    4 am   BACKBONE|DICT|INTERRES
     7    4    5 1    
     8    4   75 1    
     9    5    6 1    
    10    5   35 1    
    11    5   76 1    
    12    6    7 1    
    13    6   77 1    
    14    6   78 1    
    15    7    8 1    
    16    8    9 1    
    17    8   79 1    
    18    8   80 1    
    19    9   10 ar   
    20    9   14 ar   
    21   10   11 ar   
    22   10   81 1    
    23   11   12 ar   
    24   11   71 1    
    25   12   13 ar   
    26   12   82 1    
    27   13   14 ar   
    28   13   15 1    
    29   14   83 1    
    30   15   16 1    
    31   15   84 1    
    32   15   85 1    
    33   16   17 1    
    34   17   18 1    
    35   17   86 1    
    36   17   87 1    
    37   18   19 1    
    38   18   37 1    
    39   18   88 1    
    40   19   20 am   BACKBONE|DICT|INTERRES
    41   19   89 1    
    42   20   21 2    
    43   20   22 1    
    44   22   23 1    
    45   22   24 1    
    46   22   90 1    
    47   23   91 1    
    48   23   92 1    
    49   23   93 1    
    50   24   25 am   BACKBONE|DICT|INTERRES
    51   24   94 1    
    52   25   26 2    
    53   25   27 1    
    54   27   28 1    
    55   27   29 1    
    56   27   95 1    
    57   28   96 1    
    58   28   97 1    
    59   28   98 1    
    60   29   30 am   BACKBONE|DICT|INTERRES
    61   29   99 1    
    62   30   31 2    
    63   30   32 1    
    64   32   33 1    
    65   32   34 1    
    66   32  100 1    
    67   33  101 1    
    68   33  102 1    
    69   33  103 1    
    70   34   35 am   BACKBONE|DICT|INTERRES
    71   34  104 1    
    72   35   36 2    
    73   37   38 2    
    74   37   39 am   BACKBONE|DICT|INTERRES
    75   39   40 1    
    76   39  105 1    
    77   40   41 1    
    78   40   42 1    
    79   40  106 1    
    80   41  107 1    
    81   41  108 1    
    82   41  109 1    
    83   42   43 2    
    84   42   44 am   BACKBONE|DICT|INTERRES
    85   44   45 1    
    86   44  110 1    
    87   45   46 1    
    88   45   47 1    
    89   45  111 1    
    90   46  112 1    
    91   46  113 1    
    92   46  114 1    
    93   47   48 2    
    94   47   49 am   BACKBONE|DICT|INTERRES
    95   49   50 1    
    96   49  115 1    
    97   50   51 1    
    98   50   52 1    
    99   50  116 1    
   100   51  117 1    
   101   51  118 1    
   102   51  119 1    
   103   52   53 2    
   104   52   54 am   BACKBONE|DICT|INTERRES
   105   54   55 1    
   106   54  120 1    
   107   55   56 1    
   108   55   57 1    
   109   55  121 1    
   110   56  122 1    
   111   56  123 1    
   112   56  124 1    
   113   57   58 2    
   114   57   59 am   BACKBONE|DICT|INTERRES
   115   59   60 1    
   116   59  125 1    
   117   60   61 1    
   118   60   62 1    
   119   60  126 1    
   120   61  127 1    
   121   61  128 1    
   122   61  129 1    
   123   62   63 2    
   124   62   64 am   BACKBONE|DICT|INTERRES
   125   64   65 1    
   126   64  130 1    
   127   65   66 1    
   128   65   69 1    
   129   65  131 1    
   130   66   67 am   BACKBONE|DICT|INTERRES
   131   66   68 2    
   132   67  132 1    
   133   67  133 1    
   134   69   70 1    
   135   69  134 1    
   136   69  135 1    
   137   70   71 1    
   138   71  136 1    
   139   71  137 1    
@<TRIPOS>SUBSTRUCTURE
     1 UNK         1 GROUP             0       ****    0 ROOT    
