@<TRIPOS>MOLECULE
3R137
137   139    1
SMALL
USER_CHARGES


@<TRIPOS>ATOM
      1 CA         24.9002   -4.5661    2.2752 C.3       0 UNK        -0.2020 
      2 C          26.2147   -5.0819    1.6948 C.2       0 UNK         0.4855 
      3 O          26.4162   -6.2935    1.6475 O.2       0 UNK        -0.5197 
      4 N          27.1415   -4.2211    1.2494 N.am      1 UNK        -0.4892 
      5 CA         27.0515   -2.7555    1.1714 C.3       1 UNK         0.0835 
      6 C6         28.4404   -2.1037    0.9357 C.3       12 UNK        -0.0855 
      7 S7         29.4161   -2.8678   -0.4096 S.3       12 UNK        -0.2931 
      8 C8         29.1681   -1.6710   -1.7546 C.3       12 UNK         0.0378 
      9 C9         29.7951   -2.1646   -3.0487 C.ar      12 UNK        -0.0802 
     10 C10        30.9766   -1.5932   -3.5272 C.ar      12 UNK        -0.0944 
     11 C11        31.5504   -2.0406   -4.7214 C.ar      12 UNK        -0.0787 
     12 C12        30.9357   -3.0758   -5.4352 C.ar      12 UNK        -0.0862 
     13 C13        29.7602   -3.6665   -4.9575 C.ar      12 UNK        -0.0733 
     14 C14        29.1913   -3.1984   -3.7687 C.ar      12 UNK        -0.0832 
     15 C15        29.1388   -4.8513   -5.6880 C.3       12 UNK         0.0240 
     16 S16        28.1517   -4.3657   -7.1393 S.3       12 UNK        -0.2522 
     17 C17        26.7253   -3.5212   -6.3715 C.3       12 UNK        -0.0967 
     18 CA         26.3398   -2.2077   -7.0925 C.3       5 UNK         0.0660 
     19 N          25.1050   -1.6301   -6.5656 N.am      5 UNK        -0.4015 
     20 C          24.3106   -0.7951   -7.2520 C.2       4 UNK         0.4946 
     21 O          24.4684   -0.5201   -8.4416 O.2       4 UNK        -0.5353 
     22 CA         23.1543   -0.1336   -6.4801 C.3       4 UNK         0.0277 
     23 CB         21.8758   -0.9789   -6.5969 C.3       4 UNK        -0.1981 
     24 N          23.4598    0.0957   -5.0654 N.am      4 UNK        -0.4209 
     25 C          24.4051    0.9351   -4.6174 C.2       3 UNK         0.4942 
     26 O          25.0818    1.6556   -5.3497 O.2       3 UNK        -0.5208 
     27 CA         24.6778    0.9297   -3.1029 C.3       3 UNK         0.0250 
     28 CB         23.7880    1.9613   -2.3922 C.3       3 UNK        -0.1990 
     29 N          24.5077   -0.3843   -2.4709 N.am      3 UNK        -0.4232 
     30 C          25.1867   -1.4918   -2.7999 C.2       2 UNK         0.4993 
     31 O          26.0299   -1.5334   -3.6991 O.2       2 UNK        -0.5286 
     32 CA         24.8522   -2.7696   -2.0103 C.3       2 UNK         0.0209 
     33 CB         24.7877   -3.9972   -2.9366 C.3       2 UNK        -0.1931 
     34 N          25.8187   -3.0311   -0.9420 N.am      2 UNK        -0.4546 
     35 C          26.0096   -2.2661    0.1427 C.2       1 UNK         0.5154 
     36 O          25.3727   -1.2383    0.3747 O.2       1 UNK        -0.5181 
     37 C          27.4576   -1.1510   -7.0596 C.2       5 UNK         0.5014 
     38 O          28.1043   -0.9453   -8.0843 O.2       5 UNK        -0.5248 
     39 N          27.6270   -0.4587   -5.9220 N.am      6 UNK        -0.4434 
     40 CA         28.6379    0.5900   -5.7260 C.3       6 UNK         0.0363 
     41 CB         28.5257    1.1585   -4.3036 C.3       6 UNK        -0.1936 
     42 C          28.5673    1.7350   -6.7547 C.2       6 UNK         0.5081 
     43 O          29.6061    2.2515   -7.1620 O.2       6 UNK        -0.5248 
     44 N          27.3464    2.0986   -7.1686 N.am      7 UNK        -0.4718 
     45 CA         27.0798    3.0928   -8.2093 C.3       7 UNK         0.0273 
     46 CB         25.5991    3.4998   -8.1341 C.3       7 UNK        -0.1935 
     47 C          27.4291    2.6217   -9.6350 C.2       7 UNK         0.5018 
     48 O          27.6396    3.4714  -10.5019 O.2       7 UNK        -0.5186 
     49 N          27.4534    1.3024   -9.8678 N.am      8 UNK        -0.4240 
     50 CA         27.7036    0.6904  -11.1754 C.3       8 UNK         0.0235 
     51 CB         26.7245   -0.4791  -11.3733 C.3       8 UNK        -0.2000 
     52 C          29.1529    0.2015  -11.3222 C.2       8 UNK         0.4941 
     53 O          29.7098    0.2894  -12.4180 O.2       8 UNK        -0.5273 
     54 N          29.7243   -0.3295  -10.2345 N.am      9 UNK        -0.4262 
     55 CA         31.0781   -0.8747  -10.1534 C.3       9 UNK         0.0264 
     56 CB         31.2137   -1.6367   -8.8233 C.3       9 UNK        -0.1955 
     57 C          32.1727    0.1991  -10.2770 C.2       9 UNK         0.5031 
     58 O          31.9214    1.3876  -10.0601 O.2       9 UNK        -0.5390 
     59 N          33.3965   -0.2615  -10.5735 N.am      10 UNK        -0.4204 
     60 CA         34.6061    0.5543  -10.7447 C.3       10 UNK         0.0237 
     61 CB         35.7589   -0.3521  -11.2083 C.3       10 UNK        -0.1985 
     62 C          35.0277    1.3680   -9.5048 C.2       10 UNK         0.4970 
     63 O          35.7972    2.3188   -9.6513 O.2       10 UNK        -0.4914 
     64 N          34.5188    0.9993   -8.3220 N.am      11 UNK        -0.4285 
     65 CA         34.6419    1.7735   -7.0803 C.3       11 UNK         0.1007 
     66 C          33.8638    3.1252   -7.0727 C.2       11 UNK         0.5703 
     67 N          32.9276    3.3646   -7.9849 N.am      11 UNK        -0.7361 
     68 O          34.1318    3.9790   -6.2303 O.2       11 UNK        -0.4986 
     69 C69        34.3217    0.9049   -5.8352 C.3       12 UNK        -0.0947 
     70 S70        32.6042    0.2831   -5.7866 S.3       12 UNK        -0.2240 
     71 C71        32.8534   -1.4220   -5.2076 C.3       12 UNK         0.0194 
     72 H72        25.0618   -3.7562    2.9851 H         1 UNK         0.0906 
     73 H73        24.2391   -4.2165    1.4829 H         1 UNK         0.0906 
     74 H74        24.3835   -5.3644    2.8077 H         1 UNK         0.0906 
     75 H75        28.0048   -4.5974    0.8807 H         1 UNK         0.3140 
     76 H76        26.7051   -2.3962    2.1423 H         1 UNK         0.1085 
     77 H77        28.3501   -1.0277    0.7714 H         1 UNK         0.0836 
     78 H78        29.0317   -2.2012    1.8476 H         1 UNK         0.0836 
     79 H79        29.5915   -0.7085   -1.4629 H         1 UNK         0.0731 
     80 H80        28.1027   -1.5056   -1.9111 H         1 UNK         0.0731 
     81 H81        31.4534   -0.7966   -2.9726 H         1 UNK         0.1312 
     82 H82        31.3806   -3.4382   -6.3516 H         1 UNK         0.1406 
     83 H83        28.2861   -3.6490   -3.3858 H         1 UNK         0.1631 
     84 H84        28.5143   -5.4363   -5.0108 H         1 UNK         0.0717 
     85 H85        29.9321   -5.5232   -6.0186 H         1 UNK         0.0717 
     86 H86        25.8828   -4.2141   -6.3938 H         1 UNK         0.0934 
     87 H87        26.9251   -3.3332   -5.3188 H         1 UNK         0.0934 
     88 H88        26.1668   -2.4591   -8.1417 H         1 UNK         0.0739 
     89 H89        24.9509   -1.7445   -5.5727 H         1 UNK         0.3093 
     90 H90        22.9670    0.8382   -6.9426 H         1 UNK         0.0818 
     91 H91        21.0267   -0.4821   -6.1272 H         1 UNK         0.0819 
     92 H92        21.6130   -1.1442   -7.6429 H         1 UNK         0.0819 
     93 H93        21.9928   -1.9587   -6.1321 H         1 UNK         0.0819 
     94 H94        22.9405   -0.4452   -4.3893 H         1 UNK         0.3041 
     95 H95        25.7183    1.2234   -2.9569 H         1 UNK         0.0784 
     96 H96        23.9160    2.9530   -2.8288 H         1 UNK         0.0793 
     97 H97        22.7304    1.7055   -2.4682 H         1 UNK         0.0793 
     98 H98        24.0400    2.0408   -1.3344 H         1 UNK         0.0793 
     99 H99        23.8751   -0.4252   -1.6836 H         1 UNK         0.3024 
    100 H100       23.8675   -2.6451   -1.5541 H         1 UNK         0.1171 
    101 H101       24.4339   -4.8780   -2.4004 H         1 UNK         0.0786 
    102 H102       24.1006   -3.8282   -3.7668 H         1 UNK         0.0786 
    103 H103       25.7622   -4.2371   -3.3626 H         1 UNK         0.0786 
    104 H104       26.3964   -3.8533   -1.0418 H         1 UNK         0.2977 
    105 H105       27.0644   -0.7114   -5.1137 H         1 UNK         0.3127 
    106 H106       29.6112    0.1073   -5.8298 H         1 UNK         0.0770 
    107 H107       27.6347    1.7750   -4.1871 H         1 UNK         0.0814 
    108 H108       29.3872    1.7860   -4.0723 H         1 UNK         0.0814 
    109 H109       28.4863    0.3693   -3.5563 H         1 UNK         0.0814 
    110 H110       26.5390    1.6881   -6.7075 H         1 UNK         0.2983 
    111 H111       27.6896    3.9745   -8.0004 H         1 UNK         0.0947 
    112 H112       25.3613    4.2584   -8.8811 H         1 UNK         0.0806 
    113 H113       25.3520    3.9177   -7.1579 H         1 UNK         0.0806 
    114 H114       24.9398    2.6483   -8.3091 H         1 UNK         0.0806 
    115 H115       27.3353    0.6677   -9.0857 H         1 UNK         0.3000 
    116 H116       27.5186    1.4179  -11.9688 H         1 UNK         0.0850 
    117 H117       26.8696   -0.9507  -12.3461 H         1 UNK         0.0810 
    118 H118       25.6893   -0.1401  -11.3268 H         1 UNK         0.0810 
    119 H119       26.8549   -1.2500  -10.6124 H         1 UNK         0.0810 
    120 H120       29.1653   -0.4056   -9.3854 H         1 UNK         0.3040 
    121 H121       31.2014   -1.5813  -10.9768 H         1 UNK         0.0766 
    122 H122       31.0285   -0.9825   -7.9705 H         1 UNK         0.0812 
    123 H123       32.2083   -2.0663   -8.6999 H         1 UNK         0.0812 
    124 H124       30.4987   -2.4580   -8.7648 H         1 UNK         0.0812 
    125 H125       33.5095   -1.2548  -10.7198 H         1 UNK         0.3205 
    126 H126       34.3986    1.2754  -11.5380 H         1 UNK         0.0754 
    127 H127       36.6676    0.2268  -11.3807 H         1 UNK         0.0769 
    128 H128       35.5180   -0.8553  -12.1450 H         1 UNK         0.0769 
    129 H129       35.9955   -1.1155  -10.4659 H         1 UNK         0.0769 
    130 H130       33.8771    0.2226   -8.2919 H         1 UNK         0.2981 
    131 H131       35.6942    2.0518   -6.9965 H         1 UNK         0.0541 
    132 H132       32.6599    2.6538   -8.6581 H         1 UNK         0.3459 
    133 H133       32.4297    4.2391   -7.9600 H         1 UNK         0.3459 
    134 H134       34.5070    1.4678   -4.9188 H         1 UNK         0.0612 
    135 H135       35.0096    0.0586   -5.8037 H         1 UNK         0.0612 
    136 H136       33.5737   -1.4254   -4.3882 H         1 UNK         0.0624 
    137 H137       33.2918   -2.0132   -6.0130 H         1 UNK         0.0624 
@<TRIPOS>BOND
     1    1    2 1    
     2    1   72 1    
     3    1   73 1    
     4    1   74 1    
     5    2    3 2    
     6    2    4 am   BACKBONE|DICT|INTERRES
     7    4    5 1    
     8    4   75 1    
     9    5    6 1    
    10    5   35 1    
    11    5   76 1    
    12    6    7 1    
    13    6   77 1    
    14    6   78 1    
    15    7    8 1    
    16    8    9 1    
    17    8   79 1    
    18    8   80 1    
    19    9   10 ar   
    20    9   14 ar   
    21   10   11 ar   
    22   10   81 1    
    23   11   12 ar   
    24   11   71 1    
    25   12   13 ar   
    26   12   82 1    
    27   13   14 ar   
    28   13   15 1    
    29   14   83 1    
    30   15   16 1    
    31   15   84 1    
    32   15   85 1    
    33   16   17 1    
    34   17   18 1    
    35   17   86 1    
    36   17   87 1    
    37   18   19 1    
    38   18   37 1    
    39   18   88 1    
    40   19   20 am   BACKBONE|DICT|INTERRES
    41   19   89 1    
    42   20   21 2    
    43   20   22 1    
    44   22   23 1    
    45   22   24 1    
    46   22   90 1    
    47   23   91 1    
    48   23   92 1    
    49   23   93 1    
    50   24   25 am   BACKBONE|DICT|INTERRES
    51   24   94 1    
    52   25   26 2    
    53   25   27 1    
    54   27   28 1    
    55   27   29 1    
    56   27   95 1    
    57   28   96 1    
    58   28   97 1    
    59   28   98 1    
    60   29   30 am   BACKBONE|DICT|INTERRES
    61   29   99 1    
    62   30   31 2    
    63   30   32 1    
    64   32   33 1    
    65   32   34 1    
    66   32  100 1    
    67   33  101 1    
    68   33  102 1    
    69   33  103 1    
    70   34   35 am   BACKBONE|DICT|INTERRES
    71   34  104 1    
    72   35   36 2    
    73   37   38 2    
    74   37   39 am   BACKBONE|DICT|INTERRES
    75   39   40 1    
    76   39  105 1    
    77   40   41 1    
    78   40   42 1    
    79   40  106 1    
    80   41  107 1    
    81   41  108 1    
    82   41  109 1    
    83   42   43 2    
    84   42   44 am   BACKBONE|DICT|INTERRES
    85   44   45 1    
    86   44  110 1    
    87   45   46 1    
    88   45   47 1    
    89   45  111 1    
    90   46  112 1    
    91   46  113 1    
    92   46  114 1    
    93   47   48 2    
    94   47   49 am   BACKBONE|DICT|INTERRES
    95   49   50 1    
    96   49  115 1    
    97   50   51 1    
    98   50   52 1    
    99   50  116 1    
   100   51  117 1    
   101   51  118 1    
   102   51  119 1    
   103   52   53 2    
   104   52   54 am   BACKBONE|DICT|INTERRES
   105   54   55 1    
   106   54  120 1    
   107   55   56 1    
   108   55   57 1    
   109   55  121 1    
   110   56  122 1    
   111   56  123 1    
   112   56  124 1    
   113   57   58 2    
   114   57   59 am   BACKBONE|DICT|INTERRES
   115   59   60 1    
   116   59  125 1    
   117   60   61 1    
   118   60   62 1    
   119   60  126 1    
   120   61  127 1    
   121   61  128 1    
   122   61  129 1    
   123   62   63 2    
   124   62   64 am   BACKBONE|DICT|INTERRES
   125   64   65 1    
   126   64  130 1    
   127   65   66 1    
   128   65   69 1    
   129   65  131 1    
   130   66   67 am   BACKBONE|DICT|INTERRES
   131   66   68 2    
   132   67  132 1    
   133   67  133 1    
   134   69   70 1    
   135   69  134 1    
   136   69  135 1    
   137   70   71 1    
   138   71  136 1    
   139   71  137 1    
@<TRIPOS>SUBSTRUCTURE
     1 UNK         1 GROUP             0       ****    0 ROOT    
