@<TRIPOS>MOLECULE
3R137
137   139    1
SMALL
USER_CHARGES


@<TRIPOS>ATOM
      1 CA         31.5127    2.4419   -3.0896 C.3       0 UNK        -0.2020 
      2 C          30.2969    1.5343   -2.9820 C.2       0 UNK         0.4855 
      3 O          29.4202    1.7816   -2.1544 O.2       0 UNK        -0.5197 
      4 N          30.2292    0.5053   -3.8348 N.am      1 UNK        -0.4892 
      5 CA         29.2013   -0.5484   -3.9301 C.3       1 UNK         0.0835 
      6 C6         29.0045   -1.3800   -2.6327 C.3       12 UNK        -0.0855 
      7 S7         30.5501   -2.1344   -2.0162 S.3       12 UNK        -0.2931 
      8 C8         30.2062   -3.9221   -2.1476 C.3       12 UNK         0.0378 
      9 C9         30.3058   -4.4387   -3.5780 C.ar      12 UNK        -0.0802 
     10 C10        31.5134   -4.3411   -4.2731 C.ar      12 UNK        -0.0944 
     11 C11        31.6264   -4.8112   -5.5850 C.ar      12 UNK        -0.0787 
     12 C12        30.5197   -5.4126   -6.1933 C.ar      12 UNK        -0.0862 
     13 C13        29.3155   -5.5554   -5.4959 C.ar      12 UNK        -0.0733 
     14 C14        29.2133   -5.0591   -4.1906 C.ar      12 UNK        -0.0832 
     15 C15        28.1399   -6.2825   -6.1396 C.3       12 UNK         0.0240 
     16 S16        27.1538   -5.1929   -7.2146 S.3       12 UNK        -0.2522 
     17 C17        26.5352   -3.9822   -6.0022 C.3       12 UNK        -0.0967 
     18 CA         25.0798   -3.5017   -6.2438 C.3       5 UNK         0.0660 
     19 N          24.5329   -2.8904   -5.0405 N.am      5 UNK        -0.4015 
     20 C          24.0218   -3.5314   -3.9853 C.2       4 UNK         0.4946 
     21 O          23.9187   -4.7570   -3.9165 O.2       4 UNK        -0.5353 
     22 CA         23.5692   -2.6736   -2.7883 C.3       4 UNK         0.0277 
     23 CB         24.5721   -2.8085   -1.6299 C.3       4 UNK        -0.1981 
     24 N          23.4190   -1.2536   -3.1135 N.am      4 UNK        -0.4209 
     25 C          22.4303   -0.7171   -3.8368 C.2       3 UNK         0.4942 
     26 O          21.4738   -1.3623   -4.2667 O.2       3 UNK        -0.5208 
     27 CA         22.5326    0.7851   -4.1611 C.3       3 UNK         0.0250 
     28 CB         22.0204    1.6432   -2.9874 C.3       3 UNK        -0.1990 
     29 N          23.8610    1.2291   -4.6185 N.am      3 UNK        -0.4232 
     30 C          25.0176    1.2695   -3.9399 C.2       2 UNK         0.4993 
     31 O          25.1443    0.9119   -2.7657 O.2       2 UNK        -0.5286 
     32 CA         26.2313    1.8232   -4.7038 C.3       2 UNK         0.0209 
     33 CB         26.3239    3.3479   -4.5271 C.3       2 UNK        -0.1931 
     34 N          27.4866    1.2168   -4.2586 N.am      2 UNK        -0.4546 
     35 C          27.8378   -0.0576   -4.4701 C.2       1 UNK         0.5154 
     36 O          27.1263   -0.8468   -5.0888 O.2       1 UNK        -0.5181 
     37 C          24.9707   -2.4679   -7.3796 C.2       5 UNK         0.5014 
     38 O          24.6150   -1.3094   -7.1389 O.2       5 UNK        -0.5248 
     39 N          25.3026   -2.9039   -8.6004 N.am      6 UNK        -0.4434 
     40 CA         25.4227   -2.0590   -9.7921 C.3       6 UNK         0.0363 
     41 CB         25.3529   -2.9504  -11.0431 C.3       6 UNK        -0.1936 
     42 C          26.7099   -1.2100   -9.8050 C.2       6 UNK         0.5081 
     43 O          26.8381   -0.3255  -10.6523 O.2       6 UNK        -0.5248 
     44 N          27.6390   -1.4793   -8.8768 N.am      7 UNK        -0.4718 
     45 CA         28.9238   -0.8013   -8.6817 C.3       7 UNK         0.0273 
     46 CB         29.8157   -1.7118   -7.8143 C.3       7 UNK        -0.1935 
     47 C          28.7864    0.6255   -8.1034 C.2       7 UNK         0.5018 
     48 O          29.4500    0.9615   -7.1211 O.2       7 UNK        -0.5186 
     49 N          27.9313    1.4481   -8.7244 N.am      8 UNK        -0.4240 
     50 CA         27.6610    2.8424   -8.3736 C.3       8 UNK         0.0235 
     51 CB         26.5512    3.3896   -9.2866 C.3       8 UNK        -0.2000 
     52 C          28.9339    3.7004   -8.4515 C.2       8 UNK         0.4941 
     53 O          29.4174    3.9714   -9.5523 O.2       8 UNK        -0.5273 
     54 N          29.4614    4.0642   -7.2733 N.am      9 UNK        -0.4262 
     55 CA         30.7308    4.7661   -7.0460 C.3       9 UNK         0.0264 
     56 CB         30.6811    6.2013   -7.6137 C.3       9 UNK        -0.1955 
     57 C          31.9682    3.9737   -7.5222 C.2       9 UNK         0.5031 
     58 O          32.9875    4.5835   -7.8528 O.2       9 UNK        -0.5390 
     59 N          31.8705    2.6382   -7.5307 N.am      10 UNK        -0.4204 
     60 CA         32.9495    1.7090   -7.8569 C.3       10 UNK         0.0237 
     61 CB         32.5946    0.9658   -9.1565 C.3       10 UNK        -0.1985 
     62 C          33.1453    0.7323   -6.6901 C.2       10 UNK         0.4970 
     63 O          32.3027    0.6649   -5.7925 O.2       10 UNK        -0.4914 
     64 N          34.2661    0.0024   -6.7230 N.am      11 UNK        -0.4285 
     65 CA         34.7010   -0.9597   -5.6928 C.3       11 UNK         0.1007 
     66 C          35.1620   -0.3099   -4.3502 C.2       11 UNK         0.5703 
     67 N          35.3522    1.0025   -4.2752 N.am      11 UNK        -0.7361 
     68 O          35.3914   -1.0092   -3.3662 O.2       11 UNK        -0.4986 
     69 C69        33.6938   -2.1238   -5.4620 C.3       12 UNK        -0.0947 
     70 S70        33.2528   -3.0327   -6.9827 S.3       12 UNK        -0.2240 
     71 C71        32.9530   -4.7062   -6.3280 C.3       12 UNK         0.0194 
     72 H72        31.7417    2.8892   -2.1226 H         1 UNK         0.0906 
     73 H73        31.3240    3.2435   -3.8028 H         1 UNK         0.0906 
     74 H74        32.3928    1.8884   -3.4167 H         1 UNK         0.0906 
     75 H75        30.9594    0.4367   -4.5442 H         1 UNK         0.3140 
     76 H76        29.5842   -1.2328   -4.6876 H         1 UNK         0.1085 
     77 H77        28.2707   -2.1705   -2.8029 H         1 UNK         0.0836 
     78 H78        28.5900   -0.7573   -1.8381 H         1 UNK         0.0836 
     79 H79        30.9320   -4.4593   -1.5355 H         1 UNK         0.0731 
     80 H80        29.2278   -4.1367   -1.7148 H         1 UNK         0.0731 
     81 H81        32.3654   -3.8933   -3.7829 H         1 UNK         0.1312 
     82 H82        30.6000   -5.7911   -7.2033 H         1 UNK         0.1406 
     83 H83        28.2885   -5.1733   -3.6422 H         1 UNK         0.1631 
     84 H84        27.4942   -6.7193   -5.3760 H         1 UNK         0.0717 
     85 H85        28.5093   -7.1191   -6.7345 H         1 UNK         0.0717 
     86 H86        26.5824   -4.4503   -5.0196 H         1 UNK         0.0934 
     87 H87        27.2382   -3.1514   -5.9622 H         1 UNK         0.0934 
     88 H88        24.4500   -4.3535   -6.5098 H         1 UNK         0.0739 
     89 H89        24.5567   -1.8782   -5.0558 H         1 UNK         0.3093 
     90 H90        22.6015   -3.0562   -2.4571 H         1 UNK         0.0818 
     91 H91        24.2354   -2.2629   -0.7482 H         1 UNK         0.0819 
     92 H92        24.6944   -3.8520   -1.3364 H         1 UNK         0.0819 
     93 H93        25.5573   -2.4281   -1.9040 H         1 UNK         0.0819 
     94 H94        24.1572   -0.6217   -2.8057 H         1 UNK         0.3041 
     95 H95        21.8633    0.9619   -5.0049 H         1 UNK         0.0784 
     96 H96        20.9975    1.3704   -2.7247 H         1 UNK         0.0793 
     97 H97        22.6278    1.5174   -2.0906 H         1 UNK         0.0793 
     98 H98        22.0171    2.7027   -3.2434 H         1 UNK         0.0793 
     99 H99        23.8856    1.5147   -5.5882 H         1 UNK         0.3024 
    100 H100       26.1076    1.5862   -5.7628 H         1 UNK         0.1171 
    101 H101       26.4254    3.6226   -3.4760 H         1 UNK         0.0786 
    102 H102       27.1761    3.7652   -5.0618 H         1 UNK         0.0786 
    103 H103       25.4289    3.8423   -4.9074 H         1 UNK         0.0786 
    104 H104       28.0799    1.7583   -3.6400 H         1 UNK         0.2977 
    105 H105       25.6010   -3.8662   -8.6968 H         1 UNK         0.3127 
    106 H106       24.5777   -1.3674   -9.8155 H         1 UNK         0.0770 
    107 H107       26.1781   -3.6629  -11.0782 H         1 UNK         0.0814 
    108 H108       25.4015   -2.3510  -11.9534 H         1 UNK         0.0814 
    109 H109       24.4199   -3.5130  -11.0786 H         1 UNK         0.0814 
    110 H110       27.4237   -2.2056   -8.2103 H         1 UNK         0.2983 
    111 H111       29.4038   -0.6940   -9.6566 H         1 UNK         0.0947 
    112 H112       29.3409   -1.9488   -6.8631 H         1 UNK         0.0806 
    113 H113       30.7748   -1.2447   -7.5888 H         1 UNK         0.0806 
    114 H114       30.0310   -2.6543   -8.3180 H         1 UNK         0.0806 
    115 H115       27.4491    1.0753   -9.5380 H         1 UNK         0.3000 
    116 H116       27.2888    2.8593   -7.3497 H         1 UNK         0.0850 
    117 H117       26.3261    4.4297   -9.0468 H         1 UNK         0.0810 
    118 H118       25.6272    2.8226   -9.1716 H         1 UNK         0.0810 
    119 H119       26.8382    3.3516  -10.3384 H         1 UNK         0.0810 
    120 H120       28.9994    3.7383   -6.4363 H         1 UNK         0.3040 
    121 H121       30.8358    4.8496   -5.9634 H         1 UNK         0.0766 
    122 H122       30.6549    6.2054   -8.7037 H         1 UNK         0.0812 
    123 H123       31.5583    6.7736   -7.3094 H         1 UNK         0.0812 
    124 H124       29.8048    6.7408   -7.2545 H         1 UNK         0.0812 
    125 H125       31.0160    2.1945   -7.1997 H         1 UNK         0.3205 
    126 H126       33.8889    2.2466   -8.0011 H         1 UNK         0.0754 
    127 H127       33.3843    0.2720   -9.4471 H         1 UNK         0.0769 
    128 H128       32.4576    1.6640   -9.9826 H         1 UNK         0.0769 
    129 H129       31.6764    0.3899   -9.0549 H         1 UNK         0.0769 
    130 H130       34.9052    0.1250   -7.4948 H         1 UNK         0.2981 
    131 H131       35.6095   -1.4072   -6.0968 H         1 UNK         0.0541 
    132 H132       35.6668    1.4044   -3.4065 H         1 UNK         0.3459 
    133 H133       35.1896    1.5911   -5.0753 H         1 UNK         0.3459 
    134 H134       32.7761   -1.7618   -4.9961 H         1 UNK         0.0612 
    135 H135       34.1295   -2.8378   -4.7622 H         1 UNK         0.0612 
    136 H136       32.9697   -5.4079   -7.1632 H         1 UNK         0.0624 
    137 H137       33.7737   -5.0012   -5.6726 H         1 UNK         0.0624 
@<TRIPOS>BOND
     1    1    2 1    
     2    1   72 1    
     3    1   73 1    
     4    1   74 1    
     5    2    3 2    
     6    2    4 am   BACKBONE|DICT|INTERRES
     7    4    5 1    
     8    4   75 1    
     9    5    6 1    
    10    5   35 1    
    11    5   76 1    
    12    6    7 1    
    13    6   77 1    
    14    6   78 1    
    15    7    8 1    
    16    8    9 1    
    17    8   79 1    
    18    8   80 1    
    19    9   10 ar   
    20    9   14 ar   
    21   10   11 ar   
    22   10   81 1    
    23   11   12 ar   
    24   11   71 1    
    25   12   13 ar   
    26   12   82 1    
    27   13   14 ar   
    28   13   15 1    
    29   14   83 1    
    30   15   16 1    
    31   15   84 1    
    32   15   85 1    
    33   16   17 1    
    34   17   18 1    
    35   17   86 1    
    36   17   87 1    
    37   18   19 1    
    38   18   37 1    
    39   18   88 1    
    40   19   20 am   BACKBONE|DICT|INTERRES
    41   19   89 1    
    42   20   21 2    
    43   20   22 1    
    44   22   23 1    
    45   22   24 1    
    46   22   90 1    
    47   23   91 1    
    48   23   92 1    
    49   23   93 1    
    50   24   25 am   BACKBONE|DICT|INTERRES
    51   24   94 1    
    52   25   26 2    
    53   25   27 1    
    54   27   28 1    
    55   27   29 1    
    56   27   95 1    
    57   28   96 1    
    58   28   97 1    
    59   28   98 1    
    60   29   30 am   BACKBONE|DICT|INTERRES
    61   29   99 1    
    62   30   31 2    
    63   30   32 1    
    64   32   33 1    
    65   32   34 1    
    66   32  100 1    
    67   33  101 1    
    68   33  102 1    
    69   33  103 1    
    70   34   35 am   BACKBONE|DICT|INTERRES
    71   34  104 1    
    72   35   36 2    
    73   37   38 2    
    74   37   39 am   BACKBONE|DICT|INTERRES
    75   39   40 1    
    76   39  105 1    
    77   40   41 1    
    78   40   42 1    
    79   40  106 1    
    80   41  107 1    
    81   41  108 1    
    82   41  109 1    
    83   42   43 2    
    84   42   44 am   BACKBONE|DICT|INTERRES
    85   44   45 1    
    86   44  110 1    
    87   45   46 1    
    88   45   47 1    
    89   45  111 1    
    90   46  112 1    
    91   46  113 1    
    92   46  114 1    
    93   47   48 2    
    94   47   49 am   BACKBONE|DICT|INTERRES
    95   49   50 1    
    96   49  115 1    
    97   50   51 1    
    98   50   52 1    
    99   50  116 1    
   100   51  117 1    
   101   51  118 1    
   102   51  119 1    
   103   52   53 2    
   104   52   54 am   BACKBONE|DICT|INTERRES
   105   54   55 1    
   106   54  120 1    
   107   55   56 1    
   108   55   57 1    
   109   55  121 1    
   110   56  122 1    
   111   56  123 1    
   112   56  124 1    
   113   57   58 2    
   114   57   59 am   BACKBONE|DICT|INTERRES
   115   59   60 1    
   116   59  125 1    
   117   60   61 1    
   118   60   62 1    
   119   60  126 1    
   120   61  127 1    
   121   61  128 1    
   122   61  129 1    
   123   62   63 2    
   124   62   64 am   BACKBONE|DICT|INTERRES
   125   64   65 1    
   126   64  130 1    
   127   65   66 1    
   128   65   69 1    
   129   65  131 1    
   130   66   67 am   BACKBONE|DICT|INTERRES
   131   66   68 2    
   132   67  132 1    
   133   67  133 1    
   134   69   70 1    
   135   69  134 1    
   136   69  135 1    
   137   70   71 1    
   138   71  136 1    
   139   71  137 1    
@<TRIPOS>SUBSTRUCTURE
     1 UNK         1 GROUP             0       ****    0 ROOT    
