@<TRIPOS>MOLECULE
3R137
137   139    1
SMALL
USER_CHARGES


@<TRIPOS>ATOM
      1 CA         28.1088   -5.5546    1.9189 C.3       0 UNK        -0.2020 
      2 C          28.3016   -4.0471    1.8512 C.2       0 UNK         0.4855 
      3 O          29.2939   -3.5327    2.3676 O.2       0 UNK        -0.5197 
      4 N          27.3611   -3.3378    1.2217 N.am      1 UNK        -0.4892 
      5 CA         27.3443   -1.8841    1.0640 C.3       1 UNK         0.0835 
      6 C6         28.4257   -1.3606    0.0733 C.3       12 UNK        -0.0855 
      7 S7         28.1939   -1.8771   -1.6673 S.3       12 UNK        -0.2931 
      8 C8         29.3461   -3.2792   -1.7925 C.3       12 UNK         0.0378 
      9 C9         29.9262   -3.4009   -3.1938 C.ar      12 UNK        -0.0802 
     10 C10        31.0326   -2.6265   -3.5547 C.ar      12 UNK        -0.0944 
     11 C11        31.6218   -2.7646   -4.8147 C.ar      12 UNK        -0.0787 
     12 C12        31.0925   -3.6951   -5.7168 C.ar      12 UNK        -0.0862 
     13 C13        29.9757   -4.4651   -5.3762 C.ar      12 UNK        -0.0733 
     14 C14        29.3933   -4.3104   -4.1127 C.ar      12 UNK        -0.0832 
     15 C15        29.4331   -5.5002   -6.3552 C.3       12 UNK         0.0240 
     16 S16        28.7052   -4.7556   -7.8516 S.3       12 UNK        -0.2522 
     17 C17        27.2336   -3.9190   -7.1703 C.3       12 UNK        -0.0967 
     18 CA         26.9162   -2.5589   -7.8424 C.3       5 UNK         0.0660 
     19 N          25.6155   -2.0616   -7.3869 N.am      5 UNK        -0.4015 
     20 C          25.0326   -0.9006   -7.7194 C.2       4 UNK         0.4946 
     21 O          25.4884   -0.1124   -8.5459 O.2       4 UNK        -0.5353 
     22 CA         23.7460   -0.5284   -6.9598 C.3       4 UNK         0.0277 
     23 CB         22.5080   -0.8686   -7.8043 C.3       4 UNK        -0.1981 
     24 N          23.6336   -1.1667   -5.6409 N.am      4 UNK        -0.4209 
     25 C          24.4874   -0.9746   -4.6251 C.2       3 UNK         0.4942 
     26 O          25.4664   -0.2262   -4.6816 O.2       3 UNK        -0.5208 
     27 CA         24.2619   -1.8371   -3.3785 C.3       3 UNK         0.0250 
     28 CB         25.0803   -3.1363   -3.4816 C.3       3 UNK        -0.1990 
     29 N          24.6738   -1.1129   -2.1793 N.am      3 UNK        -0.4232 
     30 C          23.8884   -0.2833   -1.4794 C.2       2 UNK         0.4993 
     31 O          22.7135   -0.0560   -1.7754 O.2       2 UNK        -0.5286 
     32 CA         24.5089    0.4178   -0.2493 C.3       2 UNK         0.0209 
     33 CB         23.4909    0.5972    0.8980 C.3       2 UNK        -0.1931 
     34 N          25.7479   -0.2040    0.2463 N.am      2 UNK        -0.4546 
     35 C          25.9049   -1.4513    0.7183 C.2       1 UNK         0.5154 
     36 O          24.9787   -2.2571    0.8530 O.2       1 UNK        -0.5181 
     37 C          28.0487   -1.5279   -7.6380 C.2       5 UNK         0.5014 
     38 O          28.8236   -1.2943   -8.5668 O.2       5 UNK        -0.5248 
     39 N          28.0864   -0.8891   -6.4579 N.am      6 UNK        -0.4434 
     40 CA         29.0832    0.1243   -6.1069 C.3       6 UNK         0.0363 
     41 CB         28.9751    0.4605   -4.6135 C.3       6 UNK        -0.1936 
     42 C          28.9848    1.3992   -6.9586 C.2       6 UNK         0.5081 
     43 O          30.0130    2.0162   -7.2379 O.2       6 UNK        -0.5248 
     44 N          27.7623    1.7616   -7.3688 N.am      7 UNK        -0.4718 
     45 CA         27.5001    2.8763   -8.2771 C.3       7 UNK         0.0273 
     46 CB         26.0490    3.3553   -8.1074 C.3       7 UNK        -0.1935 
     47 C          27.7878    2.4905   -9.7355 C.2       7 UNK         0.5018 
     48 O          28.4344    3.2617  -10.4434 O.2       7 UNK        -0.5186 
     49 N          27.3230    1.3026  -10.1500 N.am      8 UNK        -0.4240 
     50 CA         27.4694    0.7605  -11.5034 C.3       8 UNK         0.0235 
     51 CB         26.6441   -0.5298  -11.6352 C.3       8 UNK        -0.2000 
     52 C          28.9309    0.5145  -11.9085 C.2       8 UNK         0.4941 
     53 O          29.3233    0.9019  -13.0098 O.2       8 UNK        -0.5273 
     54 N          29.7141   -0.1007  -11.0117 N.am      9 UNK        -0.4262 
     55 CA         31.1496   -0.3315  -11.2005 C.3       9 UNK         0.0264 
     56 CB         31.5693   -1.5654  -10.3857 C.3       9 UNK        -0.1955 
     57 C          32.0113    0.8909  -10.8297 C.2       9 UNK         0.5031 
     58 O          33.2075    0.8841  -11.1228 O.2       9 UNK        -0.5390 
     59 N          31.4044    1.8999  -10.1842 N.am      10 UNK        -0.4204 
     60 CA         31.9990    3.1501   -9.6894 C.3       10 UNK         0.0237 
     61 CB         32.5156    4.0160  -10.8581 C.3       10 UNK        -0.1985 
     62 C          33.0561    2.9560   -8.5812 C.2       10 UNK         0.4970 
     63 O          33.8456    3.8678   -8.3281 O.2       10 UNK        -0.4914 
     64 N          33.0465    1.7868   -7.9321 N.am      11 UNK        -0.4285 
     65 CA         33.9095    1.4271   -6.8004 C.3       11 UNK         0.1007 
     66 C          33.3978    1.9342   -5.4214 C.2       11 UNK         0.5703 
     67 N          32.1709    2.4289   -5.3045 N.am      11 UNK        -0.7361 
     68 O          34.1394    1.8959   -4.4425 O.2       11 UNK        -0.4986 
     69 C69        34.2260   -0.0920   -6.7972 C.3       12 UNK        -0.0947 
     70 S70        32.7373   -1.1478   -6.7974 S.3       12 UNK        -0.2240 
     71 C71        32.8569   -1.9409   -5.1650 C.3       12 UNK         0.0194 
     72 H72        27.1935   -5.8715    1.4191 H         1 UNK         0.0906 
     73 H73        28.9476   -6.0613    1.4424 H         1 UNK         0.0906 
     74 H74        28.0587   -5.8806    2.9575 H         1 UNK         0.0906 
     75 H75        26.5209   -3.7836    0.8719 H         1 UNK         0.3140 
     76 H76        27.5506   -1.4503    2.0451 H         1 UNK         0.1085 
     77 H77        28.4595   -0.2705    0.0930 H         1 UNK         0.0836 
     78 H78        29.4162   -1.6606    0.4163 H         1 UNK         0.0836 
     79 H79        28.8249   -4.1944   -1.5078 H         1 UNK         0.0731 
     80 H80        30.1656   -3.1651   -1.0818 H         1 UNK         0.0731 
     81 H81        31.4435   -1.9241   -2.8422 H         1 UNK         0.1312 
     82 H82        31.5505   -3.8225   -6.6883 H         1 UNK         0.1406 
     83 H83        28.5402   -4.9139   -3.8336 H         1 UNK         0.1631 
     84 H84        28.6877   -6.1377   -5.8770 H         1 UNK         0.0717 
     85 H85        30.2476   -6.1604   -6.6564 H         1 UNK         0.0717 
     86 H86        26.3926   -4.6020   -7.3014 H         1 UNK         0.0934 
     87 H87        27.3449   -3.7895   -6.0927 H         1 UNK         0.0934 
     88 H88        26.8233   -2.7257   -8.9173 H         1 UNK         0.0739 
     89 H89        25.1362   -2.6366   -6.7116 H         1 UNK         0.3093 
     90 H90        23.7679    0.5523   -6.8030 H         1 UNK         0.0818 
     91 H91        21.5920   -0.5248   -7.3235 H         1 UNK         0.0819 
     92 H92        22.5586   -0.3854   -8.7813 H         1 UNK         0.0819 
     93 H93        22.4165   -1.9417   -7.9765 H         1 UNK         0.0819 
     94 H94        22.8587   -1.8025   -5.5119 H         1 UNK         0.3041 
     95 H95        23.2034   -2.0952   -3.3005 H         1 UNK         0.0784 
     96 H96        24.7418   -3.7491   -4.3178 H         1 UNK         0.0793 
     97 H97        26.1423   -2.9371   -3.6320 H         1 UNK         0.0793 
     98 H98        24.9800   -3.7398   -2.5791 H         1 UNK         0.0793 
     99 H99        25.6443   -1.2022   -1.9119 H         1 UNK         0.3024 
    100 H100       24.7884    1.4142   -0.5960 H         1 UNK         0.1171 
    101 H101       22.6369    1.1944    0.5759 H         1 UNK         0.0786 
    102 H102       23.1023   -0.3593    1.2488 H         1 UNK         0.0786 
    103 H103       23.9380    1.1107    1.7492 H         1 UNK         0.0786 
    104 H104       26.5761    0.3687    0.1568 H         1 UNK         0.2977 
    105 H105       27.3702   -1.0749   -5.7679 H         1 UNK         0.3127 
    106 H106       30.0671   -0.3098   -6.2834 H         1 UNK         0.0770 
    107 H107       27.9907    0.8516   -4.3542 H         1 UNK         0.0814 
    108 H108       29.7129    1.2095   -4.3251 H         1 UNK         0.0814 
    109 H109       29.1594   -0.4215   -4.0028 H         1 UNK         0.0814 
    110 H110       26.9778    1.1722   -7.1257 H         1 UNK         0.2983 
    111 H111       28.1612    3.7057   -8.0145 H         1 UNK         0.0947 
    112 H112       25.8419    4.2044   -8.7601 H         1 UNK         0.0806 
    113 H113       25.8569    3.6794   -7.0845 H         1 UNK         0.0806 
    114 H114       25.3283    2.5744   -8.3516 H         1 UNK         0.0806 
    115 H115       26.7647    0.7496   -9.5005 H         1 UNK         0.3000 
    116 H116       27.0569    1.4981  -12.1951 H         1 UNK         0.0850 
    117 H117       26.9861   -1.2989  -10.9421 H         1 UNK         0.0810 
    118 H118       25.5882   -0.3467  -11.4348 H         1 UNK         0.0810 
    119 H119       26.7172   -0.9405  -12.6431 H         1 UNK         0.0810 
    120 H120       29.3105   -0.4317  -10.1350 H         1 UNK         0.3040 
    121 H121       31.3398   -0.5489  -12.2537 H         1 UNK         0.0766 
    122 H122       31.3706   -1.4295   -9.3237 H         1 UNK         0.0812 
    123 H123       32.6351   -1.7701  -10.4961 H         1 UNK         0.0812 
    124 H124       31.0314   -2.4560  -10.7106 H         1 UNK         0.0812 
    125 H125       30.4156    1.7995   -9.9986 H         1 UNK         0.3205 
    126 H126       31.1796    3.6955   -9.2187 H         1 UNK         0.0754 
    127 H127       32.8106    5.0074  -10.5121 H         1 UNK         0.0769 
    128 H128       31.7447    4.1563  -11.6160 H         1 UNK         0.0769 
    129 H129       33.3849    3.5688  -11.3408 H         1 UNK         0.0769 
    130 H130       32.3311    1.1141   -8.1647 H         1 UNK         0.2981 
    131 H131       34.8647    1.9345   -6.9477 H         1 UNK         0.0541 
    132 H132       31.8633    2.7707   -4.4090 H         1 UNK         0.3459 
    133 H133       31.5311    2.4181   -6.0926 H         1 UNK         0.3459 
    134 H134       34.7974   -0.3403   -7.6928 H         1 UNK         0.0612 
    135 H135       34.8733   -0.3536   -5.9582 H         1 UNK         0.0612 
    136 H136       33.7338   -2.5891   -5.1456 H         1 UNK         0.0624 
    137 H137       33.0212   -1.1646   -4.4158 H         1 UNK         0.0624 
@<TRIPOS>BOND
     1    1    2 1    
     2    1   72 1    
     3    1   73 1    
     4    1   74 1    
     5    2    3 2    
     6    2    4 am   BACKBONE|DICT|INTERRES
     7    4    5 1    
     8    4   75 1    
     9    5    6 1    
    10    5   35 1    
    11    5   76 1    
    12    6    7 1    
    13    6   77 1    
    14    6   78 1    
    15    7    8 1    
    16    8    9 1    
    17    8   79 1    
    18    8   80 1    
    19    9   10 ar   
    20    9   14 ar   
    21   10   11 ar   
    22   10   81 1    
    23   11   12 ar   
    24   11   71 1    
    25   12   13 ar   
    26   12   82 1    
    27   13   14 ar   
    28   13   15 1    
    29   14   83 1    
    30   15   16 1    
    31   15   84 1    
    32   15   85 1    
    33   16   17 1    
    34   17   18 1    
    35   17   86 1    
    36   17   87 1    
    37   18   19 1    
    38   18   37 1    
    39   18   88 1    
    40   19   20 am   BACKBONE|DICT|INTERRES
    41   19   89 1    
    42   20   21 2    
    43   20   22 1    
    44   22   23 1    
    45   22   24 1    
    46   22   90 1    
    47   23   91 1    
    48   23   92 1    
    49   23   93 1    
    50   24   25 am   BACKBONE|DICT|INTERRES
    51   24   94 1    
    52   25   26 2    
    53   25   27 1    
    54   27   28 1    
    55   27   29 1    
    56   27   95 1    
    57   28   96 1    
    58   28   97 1    
    59   28   98 1    
    60   29   30 am   BACKBONE|DICT|INTERRES
    61   29   99 1    
    62   30   31 2    
    63   30   32 1    
    64   32   33 1    
    65   32   34 1    
    66   32  100 1    
    67   33  101 1    
    68   33  102 1    
    69   33  103 1    
    70   34   35 am   BACKBONE|DICT|INTERRES
    71   34  104 1    
    72   35   36 2    
    73   37   38 2    
    74   37   39 am   BACKBONE|DICT|INTERRES
    75   39   40 1    
    76   39  105 1    
    77   40   41 1    
    78   40   42 1    
    79   40  106 1    
    80   41  107 1    
    81   41  108 1    
    82   41  109 1    
    83   42   43 2    
    84   42   44 am   BACKBONE|DICT|INTERRES
    85   44   45 1    
    86   44  110 1    
    87   45   46 1    
    88   45   47 1    
    89   45  111 1    
    90   46  112 1    
    91   46  113 1    
    92   46  114 1    
    93   47   48 2    
    94   47   49 am   BACKBONE|DICT|INTERRES
    95   49   50 1    
    96   49  115 1    
    97   50   51 1    
    98   50   52 1    
    99   50  116 1    
   100   51  117 1    
   101   51  118 1    
   102   51  119 1    
   103   52   53 2    
   104   52   54 am   BACKBONE|DICT|INTERRES
   105   54   55 1    
   106   54  120 1    
   107   55   56 1    
   108   55   57 1    
   109   55  121 1    
   110   56  122 1    
   111   56  123 1    
   112   56  124 1    
   113   57   58 2    
   114   57   59 am   BACKBONE|DICT|INTERRES
   115   59   60 1    
   116   59  125 1    
   117   60   61 1    
   118   60   62 1    
   119   60  126 1    
   120   61  127 1    
   121   61  128 1    
   122   61  129 1    
   123   62   63 2    
   124   62   64 am   BACKBONE|DICT|INTERRES
   125   64   65 1    
   126   64  130 1    
   127   65   66 1    
   128   65   69 1    
   129   65  131 1    
   130   66   67 am   BACKBONE|DICT|INTERRES
   131   66   68 2    
   132   67  132 1    
   133   67  133 1    
   134   69   70 1    
   135   69  134 1    
   136   69  135 1    
   137   70   71 1    
   138   71  136 1    
   139   71  137 1    
@<TRIPOS>SUBSTRUCTURE
     1 UNK         1 GROUP             0       ****    0 ROOT    
