@<TRIPOS>MOLECULE
3R137
137   139    1
SMALL
USER_CHARGES


@<TRIPOS>ATOM
      1 CA         31.6331   -0.0340   -0.7181 C.3       0 UNK        -0.2020 
      2 C          30.5605   -0.8022   -1.4727 C.2       0 UNK         0.4855 
      3 O          30.1748   -0.4095   -2.5740 O.2       0 UNK        -0.5197 
      4 N          30.0517   -1.8857   -0.8757 N.am      1 UNK        -0.4892 
      5 CA         29.0599   -2.8110   -1.4454 C.3       1 UNK         0.0835 
      6 C6         29.1406   -4.2117   -0.7730 C.3       12 UNK        -0.0855 
      7 S7         30.8404   -4.8712   -0.6247 S.3       12 UNK        -0.2931 
      8 C8         30.9142   -6.0804   -1.9806 C.3       12 UNK         0.0378 
      9 C9         30.9550   -5.4059   -3.3434 C.ar      12 UNK        -0.0802 
     10 C10        32.1255   -4.7800   -3.7842 C.ar      12 UNK        -0.0944 
     11 C11        32.1854   -4.1924   -5.0519 C.ar      12 UNK        -0.0787 
     12 C12        31.0561   -4.2325   -5.8775 C.ar      12 UNK        -0.0862 
     13 C13        29.8751   -4.8417   -5.4417 C.ar      12 UNK        -0.0733 
     14 C14        29.8335   -5.4332   -4.1761 C.ar      12 UNK        -0.0832 
     15 C15        28.6483   -4.8786   -6.3433 C.3       12 UNK         0.0240 
     16 S16        27.2321   -4.0004   -5.6084 S.3       12 UNK        -0.2522 
     17 C17        27.8240   -2.2761   -5.6213 C.3       12 UNK        -0.0967 
     18 CA         27.1165   -1.4211   -6.6976 C.3       5 UNK         0.0660 
     19 N          25.6542   -1.4015   -6.5578 N.am      5 UNK        -0.4015 
     20 C          24.8136   -0.8768   -7.4642 C.2       4 UNK         0.4946 
     21 O          25.1922   -0.3014   -8.4848 O.2       4 UNK        -0.5353 
     22 CA         23.3029   -0.9719   -7.1914 C.3       4 UNK         0.0277 
     23 CB         22.7237   -2.2369   -7.8438 C.3       4 UNK        -0.1981 
     24 N          22.9558   -0.9516   -5.7696 N.am      4 UNK        -0.4209 
     25 C          23.1738    0.0823   -4.9460 C.2       3 UNK         0.4942 
     26 O          23.6704    1.1504   -5.3085 O.2       3 UNK        -0.5208 
     27 CA         22.8239   -0.1081   -3.4568 C.3       3 UNK         0.0250 
     28 CB         22.1397   -1.4551   -3.1252 C.3       3 UNK        -0.1990 
     29 N          24.0062    0.0875   -2.6092 N.am      3 UNK        -0.4232 
     30 C          25.1750   -0.5657   -2.7014 C.2       2 UNK         0.4993 
     31 O          25.3963   -1.4506   -3.5314 O.2       2 UNK        -0.5286 
     32 CA         26.2877   -0.1002   -1.7421 C.3       2 UNK         0.0209 
     33 CB         25.7899    0.0735   -0.2890 C.3       2 UNK        -0.1931 
     34 N          27.4869   -0.9470   -1.7773 N.am      2 UNK        -0.4546 
     35 C          27.6246   -2.2239   -1.3895 C.2       1 UNK         0.5154 
     36 O          26.6974   -2.9087   -0.9512 O.2       1 UNK        -0.5181 
     37 C          27.7228   -0.0086   -6.7245 C.2       5 UNK         0.5014 
     38 O          28.7153    0.1999   -7.4223 O.2       5 UNK        -0.5248 
     39 N          27.0993    0.9438   -6.0161 N.am      6 UNK        -0.4434 
     40 CA         27.4915    2.3546   -5.9990 C.3       6 UNK         0.0363 
     41 CB         26.6916    3.0908   -4.9132 C.3       6 UNK        -0.1936 
     42 C          27.3291    3.0553   -7.3617 C.2       6 UNK         0.5081 
     43 O          28.0330    4.0323   -7.6152 O.2       6 UNK        -0.5248 
     44 N          26.4260    2.5460   -8.2102 N.am      7 UNK        -0.4718 
     45 CA         26.2149    3.0207   -9.5763 C.3       7 UNK         0.0273 
     46 CB         24.7074    3.0370   -9.8808 C.3       7 UNK        -0.1935 
     47 C          26.9615    2.1435  -10.5919 C.2       7 UNK         0.5018 
     48 O          27.6091    2.6817  -11.4902 O.2       7 UNK        -0.5186 
     49 N          26.8381    0.8158  -10.4511 N.am      8 UNK        -0.4240 
     50 CA         27.3468   -0.1695  -11.4066 C.3       8 UNK         0.0235 
     51 CB         26.6663   -1.5251  -11.1526 C.3       8 UNK        -0.2000 
     52 C          28.8742   -0.3286  -11.3905 C.2       8 UNK         0.4941 
     53 O          29.4655   -0.4814  -12.4605 O.2       8 UNK        -0.5273 
     54 N          29.4769   -0.3209  -10.1947 N.am      9 UNK        -0.4262 
     55 CA         30.9083   -0.5621   -9.9896 C.3       9 UNK         0.0264 
     56 CB         31.0804   -1.7993   -9.0941 C.3       9 UNK        -0.1955 
     57 C          31.6229    0.6536   -9.3803 C.2       9 UNK         0.5031 
     58 O          32.7928    0.8738   -9.6960 O.2       9 UNK        -0.5390 
     59 N          30.9141    1.4147   -8.5324 N.am      10 UNK        -0.4204 
     60 CA         31.3744    2.5897   -7.7836 C.3       10 UNK         0.0237 
     61 CB         31.7501    3.7486   -8.7319 C.3       10 UNK        -0.1985 
     62 C          32.4774    2.2428   -6.7651 C.2       10 UNK         0.4970 
     63 O          33.4557    2.9810   -6.6355 O.2       10 UNK        -0.4914 
     64 N          32.2916    1.1198   -6.0581 N.am      11 UNK        -0.4285 
     65 CA         33.2143    0.6084   -5.0301 C.3       11 UNK         0.1007 
     66 C          33.2365    1.4273   -3.7065 C.2       11 UNK         0.5703 
     67 N          32.2970    2.3338   -3.4626 N.am      11 UNK        -0.7361 
     68 O          34.1399    1.2490   -2.8932 O.2       11 UNK        -0.4986 
     69 C69        32.9844   -0.9024   -4.7581 C.3       12 UNK        -0.0947 
     70 S70        33.2882   -1.9062   -6.2466 S.3       12 UNK        -0.2240 
     71 C71        33.4908   -3.5748   -5.5440 C.3       12 UNK         0.0194 
     72 H72        31.6437   -0.2875    0.3417 H         1 UNK         0.0906 
     73 H73        32.6147   -0.2600   -1.1327 H         1 UNK         0.0906 
     74 H74        31.4627    1.0385   -0.8065 H         1 UNK         0.0906 
     75 H75        30.4015   -2.1537    0.0334 H         1 UNK         0.3140 
     76 H76        29.2967   -2.9431   -2.5041 H         1 UNK         0.1085 
     77 H77        28.7314   -4.1683    0.2384 H         1 UNK         0.0836 
     78 H78        28.5194   -4.9276   -1.3145 H         1 UNK         0.0836 
     79 H79        31.8110   -6.6895   -1.8576 H         1 UNK         0.0731 
     80 H80        30.0699   -6.7676   -1.9056 H         1 UNK         0.0731 
     81 H81        32.9950   -4.7668   -3.1412 H         1 UNK         0.1312 
     82 H82        31.1019   -3.7926   -6.8638 H         1 UNK         0.1406 
     83 H83        28.9240   -5.9150   -3.8432 H         1 UNK         0.1631 
     84 H84        28.3670   -5.9179   -6.5178 H         1 UNK         0.0717 
     85 H85        28.8651   -4.4491   -7.3228 H         1 UNK         0.0717 
     86 H86        28.9042   -2.2643   -5.7784 H         1 UNK         0.0934 
     87 H87        27.6725   -1.8558   -4.6267 H         1 UNK         0.0934 
     88 H88        27.3341   -1.8702   -7.6689 H         1 UNK         0.0739 
     89 H89        25.2864   -1.8008   -5.7014 H         1 UNK         0.3093 
     90 H90        22.8354   -0.1024   -7.6587 H         1 UNK         0.0818 
     91 H91        21.6388   -2.2752   -7.7437 H         1 UNK         0.0819 
     92 H92        22.9493   -2.2624   -8.9112 H         1 UNK         0.0819 
     93 H93        23.1358   -3.1454   -7.4025 H         1 UNK         0.0819 
     94 H94        22.5641   -1.7975   -5.3813 H         1 UNK         0.3041 
     95 H95        22.1232    0.6899   -3.2067 H         1 UNK         0.0784 
     96 H96        21.2158   -1.5821   -3.6913 H         1 UNK         0.0793 
     97 H97        22.7837   -2.3105   -3.3339 H         1 UNK         0.0793 
     98 H98        21.8706   -1.5027   -2.0699 H         1 UNK         0.0793 
     99 H99        23.9299    0.8303   -1.9289 H         1 UNK         0.3024 
    100 H100       26.6091    0.8776   -2.1037 H         1 UNK         0.1171 
    101 H101       26.6104    0.3303    0.3813 H         1 UNK         0.0786 
    102 H102       25.3230   -0.8360    0.0911 H         1 UNK         0.0786 
    103 H103       25.0555    0.8752   -0.2077 H         1 UNK         0.0786 
    104 H104       28.3283   -0.5084   -2.1447 H         1 UNK         0.2977 
    105 H105       26.2601    0.6968   -5.5092 H         1 UNK         0.3127 
    106 H106       28.5492    2.4010   -5.7319 H         1 UNK         0.0770 
    107 H107       25.6199    3.0656   -5.1143 H         1 UNK         0.0814 
    108 H108       26.9868    4.1395   -4.8561 H         1 UNK         0.0814 
    109 H109       26.8608    2.6548   -3.9290 H         1 UNK         0.0814 
    110 H110       25.9091    1.7209   -7.9329 H         1 UNK         0.2983 
    111 H111       26.5878    4.0422   -9.6817 H         1 UNK         0.0947 
    112 H112       24.5185    3.3840  -10.8976 H         1 UNK         0.0806 
    113 H113       24.1764    3.7087   -9.2060 H         1 UNK         0.0806 
    114 H114       24.2602    2.0466   -9.7851 H         1 UNK         0.0806 
    115 H115       26.2548    0.4527   -9.6976 H         1 UNK         0.3000 
    116 H116       27.0642    0.1632  -12.4079 H         1 UNK         0.0850 
    117 H117       26.9970   -2.2709  -11.8768 H         1 UNK         0.0810 
    118 H118       25.5824   -1.4468  -11.2398 H         1 UNK         0.0810 
    119 H119       26.8928   -1.9120  -10.1585 H         1 UNK         0.0810 
    120 H120       28.9192   -0.1670   -9.3616 H         1 UNK         0.3040 
    121 H121       31.3997   -0.7733  -10.9417 H         1 UNK         0.0766 
    122 H122       32.1358   -2.0492   -8.9822 H         1 UNK         0.0812 
    123 H123       30.6708   -1.6392   -8.0961 H         1 UNK         0.0812 
    124 H124       30.5872   -2.6716   -9.5230 H         1 UNK         0.0812 
    125 H125       29.9921    1.0729   -8.2639 H         1 UNK         0.3205 
    126 H126       30.5216    2.9232   -7.1925 H         1 UNK         0.0754 
    127 H127       31.9638    4.6583   -8.1697 H         1 UNK         0.0769 
    128 H128       30.9329    3.9772   -9.4164 H         1 UNK         0.0769 
    129 H129       32.6344    3.5194   -9.3270 H         1 UNK         0.0769 
    130 H130       31.4673    0.5636   -6.2275 H         1 UNK         0.2981 
    131 H131       34.2226    0.7080   -5.4372 H         1 UNK         0.0541 
    132 H132       31.5454    2.4785   -4.1153 H         1 UNK         0.3459 
    133 H133       32.3362    2.8668   -2.6091 H         1 UNK         0.3459 
    134 H134       31.9652   -1.0869   -4.4165 H         1 UNK         0.0612 
    135 H135       33.6474   -1.2582   -3.9673 H         1 UNK         0.0612 
    136 H136       33.9069   -4.2237   -6.3155 H         1 UNK         0.0624 
    137 H137       34.2325   -3.5347   -4.7449 H         1 UNK         0.0624 
@<TRIPOS>BOND
     1    1    2 1    
     2    1   72 1    
     3    1   73 1    
     4    1   74 1    
     5    2    3 2    
     6    2    4 am   BACKBONE|DICT|INTERRES
     7    4    5 1    
     8    4   75 1    
     9    5    6 1    
    10    5   35 1    
    11    5   76 1    
    12    6    7 1    
    13    6   77 1    
    14    6   78 1    
    15    7    8 1    
    16    8    9 1    
    17    8   79 1    
    18    8   80 1    
    19    9   10 ar   
    20    9   14 ar   
    21   10   11 ar   
    22   10   81 1    
    23   11   12 ar   
    24   11   71 1    
    25   12   13 ar   
    26   12   82 1    
    27   13   14 ar   
    28   13   15 1    
    29   14   83 1    
    30   15   16 1    
    31   15   84 1    
    32   15   85 1    
    33   16   17 1    
    34   17   18 1    
    35   17   86 1    
    36   17   87 1    
    37   18   19 1    
    38   18   37 1    
    39   18   88 1    
    40   19   20 am   BACKBONE|DICT|INTERRES
    41   19   89 1    
    42   20   21 2    
    43   20   22 1    
    44   22   23 1    
    45   22   24 1    
    46   22   90 1    
    47   23   91 1    
    48   23   92 1    
    49   23   93 1    
    50   24   25 am   BACKBONE|DICT|INTERRES
    51   24   94 1    
    52   25   26 2    
    53   25   27 1    
    54   27   28 1    
    55   27   29 1    
    56   27   95 1    
    57   28   96 1    
    58   28   97 1    
    59   28   98 1    
    60   29   30 am   BACKBONE|DICT|INTERRES
    61   29   99 1    
    62   30   31 2    
    63   30   32 1    
    64   32   33 1    
    65   32   34 1    
    66   32  100 1    
    67   33  101 1    
    68   33  102 1    
    69   33  103 1    
    70   34   35 am   BACKBONE|DICT|INTERRES
    71   34  104 1    
    72   35   36 2    
    73   37   38 2    
    74   37   39 am   BACKBONE|DICT|INTERRES
    75   39   40 1    
    76   39  105 1    
    77   40   41 1    
    78   40   42 1    
    79   40  106 1    
    80   41  107 1    
    81   41  108 1    
    82   41  109 1    
    83   42   43 2    
    84   42   44 am   BACKBONE|DICT|INTERRES
    85   44   45 1    
    86   44  110 1    
    87   45   46 1    
    88   45   47 1    
    89   45  111 1    
    90   46  112 1    
    91   46  113 1    
    92   46  114 1    
    93   47   48 2    
    94   47   49 am   BACKBONE|DICT|INTERRES
    95   49   50 1    
    96   49  115 1    
    97   50   51 1    
    98   50   52 1    
    99   50  116 1    
   100   51  117 1    
   101   51  118 1    
   102   51  119 1    
   103   52   53 2    
   104   52   54 am   BACKBONE|DICT|INTERRES
   105   54   55 1    
   106   54  120 1    
   107   55   56 1    
   108   55   57 1    
   109   55  121 1    
   110   56  122 1    
   111   56  123 1    
   112   56  124 1    
   113   57   58 2    
   114   57   59 am   BACKBONE|DICT|INTERRES
   115   59   60 1    
   116   59  125 1    
   117   60   61 1    
   118   60   62 1    
   119   60  126 1    
   120   61  127 1    
   121   61  128 1    
   122   61  129 1    
   123   62   63 2    
   124   62   64 am   BACKBONE|DICT|INTERRES
   125   64   65 1    
   126   64  130 1    
   127   65   66 1    
   128   65   69 1    
   129   65  131 1    
   130   66   67 am   BACKBONE|DICT|INTERRES
   131   66   68 2    
   132   67  132 1    
   133   67  133 1    
   134   69   70 1    
   135   69  134 1    
   136   69  135 1    
   137   70   71 1    
   138   71  136 1    
   139   71  137 1    
@<TRIPOS>SUBSTRUCTURE
     1 UNK         1 GROUP             0       ****    0 ROOT    
