@<TRIPOS>MOLECULE
3R137
137   139    1
SMALL
USER_CHARGES


@<TRIPOS>ATOM
      1 CA         25.5727   -7.7980    1.6549 C.3       0 UNK        -0.2020 
      2 C          25.9268   -6.4175    1.1225 C.2       0 UNK         0.4855 
      3 O          25.8154   -5.4335    1.8539 O.2       0 UNK        -0.5197 
      4 N          26.3577   -6.3386   -0.1440 N.am      1 UNK        -0.4892 
      5 CA         26.7103   -5.0924   -0.8358 C.3       1 UNK         0.0835 
      6 C6         27.4903   -5.3948   -2.1420 C.3       12 UNK        -0.0855 
      7 S7         28.1828   -3.9154   -2.9535 S.3       12 UNK        -0.2931 
      8 C8         29.8453   -3.8523   -2.2222 C.3       12 UNK         0.0378 
      9 C9         30.5779   -2.6065   -2.6906 C.ar      12 UNK        -0.0802 
     10 C10        31.3304   -2.6354   -3.8681 C.ar      12 UNK        -0.0944 
     11 C11        31.9636   -1.4808   -4.3392 C.ar      12 UNK        -0.0787 
     12 C12        31.8667   -0.3019   -3.5938 C.ar      12 UNK        -0.0862 
     13 C13        31.1112   -0.2565   -2.4196 C.ar      12 UNK        -0.0733 
     14 C14        30.4703   -1.4138   -1.9697 C.ar      12 UNK        -0.0832 
     15 C15        30.9669    1.0496   -1.6528 C.3       12 UNK         0.0240 
     16 S16        29.5009    1.9884   -2.1940 S.3       12 UNK        -0.2522 
     17 C17        30.0061    2.5708   -3.8497 C.3       12 UNK        -0.0967 
     18 CA         29.3127    1.7863   -4.9936 C.3       5 UNK         0.0660 
     19 N          27.8523    1.9346   -4.9485 N.am      5 UNK        -0.4015 
     20 C          26.9648    1.4530   -5.8286 C.2       4 UNK         0.4946 
     21 O          27.2546    0.9193   -6.9028 O.2       4 UNK        -0.5353 
     22 CA         25.4827    1.6007   -5.4552 C.3       4 UNK         0.0277 
     23 CB         24.7630    2.5278   -6.4466 C.3       4 UNK        -0.1981 
     24 N          24.8289    0.2923   -5.4589 N.am      4 UNK        -0.4209 
     25 C          25.0114   -0.6474   -4.5236 C.2       3 UNK         0.4942 
     26 O          25.6736   -0.4786   -3.4970 O.2       3 UNK        -0.5208 
     27 CA         24.3538   -2.0054   -4.7914 C.3       3 UNK         0.0250 
     28 CB         25.2525   -2.8864   -5.6799 C.3       3 UNK        -0.1990 
     29 N          24.1144   -2.6751   -3.5169 N.am      3 UNK        -0.4232 
     30 C          23.1561   -3.5745   -3.2716 C.2       2 UNK         0.4993 
     31 O          22.3561   -3.9641   -4.1250 O.2       2 UNK        -0.5286 
     32 CA         23.1007   -4.1507   -1.8414 C.3       2 UNK         0.0209 
     33 CB         21.9347   -5.1376   -1.6400 C.3       2 UNK        -0.1931 
     34 N          24.3533   -4.8239   -1.4874 N.am      2 UNK        -0.4546 
     35 C          25.4712   -4.2037   -1.0848 C.2       1 UNK         0.5154 
     36 O          25.5397   -2.9865   -0.9056 O.2       1 UNK        -0.5181 
     37 C          29.9364    2.1560   -6.3535 C.2       5 UNK         0.5014 
     38 O          30.6551    1.3446   -6.9393 O.2       5 UNK        -0.5248 
     39 N          29.6519    3.3731   -6.8307 N.am      6 UNK        -0.4434 
     40 CA         30.1784    3.8791   -8.0972 C.3       6 UNK         0.0363 
     41 CB         30.3373    5.4059   -8.0151 C.3       6 UNK        -0.1936 
     42 C          29.2977    3.4939   -9.2935 C.2       6 UNK         0.5081 
     43 O          29.8325    3.1511  -10.3470 O.2       6 UNK        -0.5248 
     44 N          27.9723    3.5945   -9.1267 N.am      7 UNK        -0.4718 
     45 CA         27.0136    3.5238  -10.2319 C.3       7 UNK         0.0273 
     46 CB         25.7414    4.3007   -9.8558 C.3       7 UNK        -0.1935 
     47 C          26.6621    2.0981  -10.6833 C.2       7 UNK         0.5018 
     48 O          26.3736    1.9160  -11.8672 O.2       7 UNK        -0.5186 
     49 N          26.6614    1.1293   -9.7575 N.am      8 UNK        -0.4240 
     50 CA         26.2472   -0.2515  -10.0251 C.3       8 UNK         0.0235 
     51 CB         25.0235   -0.6004   -9.1623 C.3       8 UNK        -0.2000 
     52 C          27.3899   -1.2409   -9.7777 C.2       8 UNK         0.4941 
     53 O          27.6445   -2.0890  -10.6335 O.2       8 UNK        -0.5273 
     54 N          28.0621   -1.1208   -8.6248 N.am      9 UNK        -0.4262 
     55 CA         29.1643   -2.0004   -8.2242 C.3       9 UNK         0.0264 
     56 CB         29.2812   -1.9945   -6.6950 C.3       9 UNK        -0.1955 
     57 C          30.5053   -1.6561   -8.9042 C.2       9 UNK         0.5031 
     58 O          31.4119   -2.4896   -8.8876 O.2       9 UNK        -0.5390 
     59 N          30.5911   -0.4652   -9.5157 N.am      10 UNK        -0.4204 
     60 CA         31.6666    0.0224  -10.3861 C.3       10 UNK         0.0237 
     61 CB         31.7623   -0.8370  -11.6661 C.3       10 UNK        -0.1985 
     62 C          33.0286    0.2210   -9.6907 C.2       10 UNK         0.4970 
     63 O          34.0666    0.0176  -10.3239 O.2       10 UNK        -0.4914 
     64 N          33.0147    0.6683   -8.4284 N.am      11 UNK        -0.4285 
     65 CA         34.2139    1.1289   -7.7022 C.3       11 UNK         0.1007 
     66 C          34.6304    2.5921   -8.0457 C.2       11 UNK         0.5703 
     67 N          33.9107    3.3190   -8.8933 N.am      11 UNK        -0.7361 
     68 O          35.6438    3.0754   -7.5463 O.2       11 UNK        -0.4986 
     69 C69        34.0690    0.9179   -6.1708 C.3       12 UNK        -0.0947 
     70 S70        34.3498   -0.8174   -5.6755 S.3       12 UNK        -0.2240 
     71 C71        32.6662   -1.5054   -5.6936 C.3       12 UNK         0.0194 
     72 H72        25.7270   -8.5767    0.9082 H         1 UNK         0.0906 
     73 H73        26.1879   -8.0345    2.5227 H         1 UNK         0.0906 
     74 H74        24.5272   -7.8246    1.9612 H         1 UNK         0.0906 
     75 H75        26.4394   -7.1859   -0.6891 H         1 UNK         0.3140 
     76 H76        27.3726   -4.5308   -0.1728 H         1 UNK         0.1085 
     77 H77        28.3076   -6.0882   -1.9363 H         1 UNK         0.0836 
     78 H78        26.8467   -5.9039   -2.8621 H         1 UNK         0.0836 
     79 H79        30.4036   -4.7473   -2.5012 H         1 UNK         0.0731 
     80 H80        29.7688   -3.8578   -1.1337 H         1 UNK         0.0731 
     81 H81        31.3866   -3.5523   -4.4389 H         1 UNK         0.1312 
     82 H82        32.3544    0.5950   -3.9379 H         1 UNK         0.1406 
     83 H83        29.8692   -1.3806   -1.0709 H         1 UNK         0.1631 
     84 H84        31.8622    1.6633   -1.7642 H         1 UNK         0.0717 
     85 H85        30.8749    0.8414   -0.5857 H         1 UNK         0.0717 
     86 H86        29.7654    3.6336   -3.9149 H         1 UNK         0.0934 
     87 H87        31.0924    2.5154   -3.9341 H         1 UNK         0.0934 
     88 H88        29.5113    0.7254   -4.8372 H         1 UNK         0.0739 
     89 H89        27.4974    2.3371   -4.0931 H         1 UNK         0.3093 
     90 H90        25.3986    2.0320   -4.4551 H         1 UNK         0.0818 
     91 H91        25.2373    3.5094   -6.4799 H         1 UNK         0.0819 
     92 H92        24.7723    2.1209   -7.4583 H         1 UNK         0.0819 
     93 H93        23.7228    2.6824   -6.1596 H         1 UNK         0.0819 
     94 H94        24.2790    0.0679   -6.2744 H         1 UNK         0.3041 
     95 H95        23.3991   -1.8326   -5.2933 H         1 UNK         0.0784 
     96 H96        25.4830   -2.3965   -6.6259 H         1 UNK         0.0793 
     97 H97        26.2009   -3.1091   -5.1899 H         1 UNK         0.0793 
     98 H98        24.7694   -3.8346   -5.9161 H         1 UNK         0.0793 
     99 H99        24.7330   -2.3887   -2.7617 H         1 UNK         0.3024 
    100 H100       22.9426   -3.3089   -1.1627 H         1 UNK         0.1171 
    101 H101       21.8872   -5.4897   -0.6093 H         1 UNK         0.0786 
    102 H102       20.9780   -4.6626   -1.8620 H         1 UNK         0.0786 
    103 H103       22.0249   -6.0096   -2.2891 H         1 UNK         0.0786 
    104 H104       24.3822   -5.8247   -1.6174 H         1 UNK         0.2977 
    105 H105       29.0520    3.9841   -6.2958 H         1 UNK         0.3127 
    106 H106       31.1699    3.4564   -8.2681 H         1 UNK         0.0770 
    107 H107       29.3858    5.9072   -7.8340 H         1 UNK         0.0814 
    108 H108       30.7438    5.8051   -8.9456 H         1 UNK         0.0814 
    109 H109       31.0238    5.6892   -7.2171 H         1 UNK         0.0814 
    110 H110       27.6131    3.8593   -8.2222 H         1 UNK         0.2983 
    111 H111       27.4553    4.0264  -11.0961 H         1 UNK         0.0947 
    112 H112       25.0261    4.2982  -10.6796 H         1 UNK         0.0806 
    113 H113       25.9653    5.3433   -9.6290 H         1 UNK         0.0806 
    114 H114       25.2394    3.8692   -8.9914 H         1 UNK         0.0806 
    115 H115       26.9353    1.3466   -8.8039 H         1 UNK         0.3000 
    116 H116       25.9511   -0.3698  -11.0697 H         1 UNK         0.0850 
    117 H117       25.2416   -0.5030   -8.1008 H         1 UNK         0.0810 
    118 H118       24.1800    0.0506   -9.3928 H         1 UNK         0.0810 
    119 H119       24.6998   -1.6272   -9.3382 H         1 UNK         0.0810 
    120 H120       27.7856   -0.3983   -7.9591 H         1 UNK         0.3040 
    121 H121       28.9110   -3.0193   -8.5253 H         1 UNK         0.0766 
    122 H122       29.5918   -1.0224   -6.3186 H         1 UNK         0.0812 
    123 H123       30.0162   -2.7286   -6.3672 H         1 UNK         0.0812 
    124 H124       28.3359   -2.2510   -6.2174 H         1 UNK         0.0812 
    125 H125       29.8030    0.1572   -9.4078 H         1 UNK         0.3205 
    126 H126       31.3585    1.0196  -10.7001 H         1 UNK         0.0754 
    127 H127       32.4434   -0.3893  -12.3910 H         1 UNK         0.0769 
    128 H128       30.7916   -0.9315  -12.1532 H         1 UNK         0.0769 
    129 H129       32.1293   -1.8414  -11.4522 H         1 UNK         0.0769 
    130 H130       32.1233    0.8266   -7.9625 H         1 UNK         0.2981 
    131 H131       35.0617    0.5248   -8.0307 H         1 UNK         0.0541 
    132 H132       33.0977    2.9312   -9.3408 H         1 UNK         0.3459 
    133 H133       34.2082    4.2576   -9.1075 H         1 UNK         0.3459 
    134 H134       33.0959    1.2719   -5.8350 H         1 UNK         0.0612 
    135 H135       34.8046    1.5048   -5.6179 H         1 UNK         0.0612 
    136 H136       32.0584   -0.9621   -6.4150 H         1 UNK         0.0624 
    137 H137       32.7322   -2.5283   -6.0672 H         1 UNK         0.0624 
@<TRIPOS>BOND
     1    1    2 1    
     2    1   72 1    
     3    1   73 1    
     4    1   74 1    
     5    2    3 2    
     6    2    4 am   BACKBONE|DICT|INTERRES
     7    4    5 1    
     8    4   75 1    
     9    5    6 1    
    10    5   35 1    
    11    5   76 1    
    12    6    7 1    
    13    6   77 1    
    14    6   78 1    
    15    7    8 1    
    16    8    9 1    
    17    8   79 1    
    18    8   80 1    
    19    9   10 ar   
    20    9   14 ar   
    21   10   11 ar   
    22   10   81 1    
    23   11   12 ar   
    24   11   71 1    
    25   12   13 ar   
    26   12   82 1    
    27   13   14 ar   
    28   13   15 1    
    29   14   83 1    
    30   15   16 1    
    31   15   84 1    
    32   15   85 1    
    33   16   17 1    
    34   17   18 1    
    35   17   86 1    
    36   17   87 1    
    37   18   19 1    
    38   18   37 1    
    39   18   88 1    
    40   19   20 am   BACKBONE|DICT|INTERRES
    41   19   89 1    
    42   20   21 2    
    43   20   22 1    
    44   22   23 1    
    45   22   24 1    
    46   22   90 1    
    47   23   91 1    
    48   23   92 1    
    49   23   93 1    
    50   24   25 am   BACKBONE|DICT|INTERRES
    51   24   94 1    
    52   25   26 2    
    53   25   27 1    
    54   27   28 1    
    55   27   29 1    
    56   27   95 1    
    57   28   96 1    
    58   28   97 1    
    59   28   98 1    
    60   29   30 am   BACKBONE|DICT|INTERRES
    61   29   99 1    
    62   30   31 2    
    63   30   32 1    
    64   32   33 1    
    65   32   34 1    
    66   32  100 1    
    67   33  101 1    
    68   33  102 1    
    69   33  103 1    
    70   34   35 am   BACKBONE|DICT|INTERRES
    71   34  104 1    
    72   35   36 2    
    73   37   38 2    
    74   37   39 am   BACKBONE|DICT|INTERRES
    75   39   40 1    
    76   39  105 1    
    77   40   41 1    
    78   40   42 1    
    79   40  106 1    
    80   41  107 1    
    81   41  108 1    
    82   41  109 1    
    83   42   43 2    
    84   42   44 am   BACKBONE|DICT|INTERRES
    85   44   45 1    
    86   44  110 1    
    87   45   46 1    
    88   45   47 1    
    89   45  111 1    
    90   46  112 1    
    91   46  113 1    
    92   46  114 1    
    93   47   48 2    
    94   47   49 am   BACKBONE|DICT|INTERRES
    95   49   50 1    
    96   49  115 1    
    97   50   51 1    
    98   50   52 1    
    99   50  116 1    
   100   51  117 1    
   101   51  118 1    
   102   51  119 1    
   103   52   53 2    
   104   52   54 am   BACKBONE|DICT|INTERRES
   105   54   55 1    
   106   54  120 1    
   107   55   56 1    
   108   55   57 1    
   109   55  121 1    
   110   56  122 1    
   111   56  123 1    
   112   56  124 1    
   113   57   58 2    
   114   57   59 am   BACKBONE|DICT|INTERRES
   115   59   60 1    
   116   59  125 1    
   117   60   61 1    
   118   60   62 1    
   119   60  126 1    
   120   61  127 1    
   121   61  128 1    
   122   61  129 1    
   123   62   63 2    
   124   62   64 am   BACKBONE|DICT|INTERRES
   125   64   65 1    
   126   64  130 1    
   127   65   66 1    
   128   65   69 1    
   129   65  131 1    
   130   66   67 am   BACKBONE|DICT|INTERRES
   131   66   68 2    
   132   67  132 1    
   133   67  133 1    
   134   69   70 1    
   135   69  134 1    
   136   69  135 1    
   137   70   71 1    
   138   71  136 1    
   139   71  137 1    
@<TRIPOS>SUBSTRUCTURE
     1 UNK         1 GROUP             0       ****    0 ROOT    
