@<TRIPOS>MOLECULE
3R137
137   139    1
SMALL
USER_CHARGES


@<TRIPOS>ATOM
      1 CA         30.4658   -4.7362   -1.3302 C.3       0 UNK        -0.2020 
      2 C          29.3003   -3.8758   -0.8659 C.2       0 UNK         0.4855 
      3 O          28.5660   -4.2719    0.0401 O.2       0 UNK        -0.5197 
      4 N          29.1400   -2.6936   -1.4708 N.am      1 UNK        -0.4892 
      5 CA         28.0665   -1.7319   -1.1961 C.3       1 UNK         0.0835 
      6 C6         28.3167   -0.3534   -1.8655 C.3       12 UNK        -0.0855 
      7 S7         30.0069    0.2966   -1.6162 S.3       12 UNK        -0.2931 
      8 C8         30.6779    0.2882   -3.3121 C.3       12 UNK         0.0378 
      9 C9         31.0669   -1.1052   -3.7868 C.ar      12 UNK        -0.0802 
     10 C10        32.3943   -1.5339   -3.6973 C.ar      12 UNK        -0.0944 
     11 C11        32.7652   -2.7924   -4.1785 C.ar      12 UNK        -0.0787 
     12 C12        31.7941   -3.6358   -4.7267 C.ar      12 UNK        -0.0862 
     13 C13        30.4613   -3.2247   -4.8124 C.ar      12 UNK        -0.0733 
     14 C14        30.1116   -1.9521   -4.3564 C.ar      12 UNK        -0.0832 
     15 C15        29.4016   -4.1695   -5.3655 C.3       12 UNK         0.0240 
     16 S16        28.5899   -3.5192   -6.8619 S.3       12 UNK        -0.2522 
     17 C17        27.0396   -2.8336   -6.1826 C.3       12 UNK        -0.0967 
     18 CA         26.6155   -1.5095   -6.8670 C.3       5 UNK         0.0660 
     19 N          25.1542   -1.4033   -6.9563 N.am      5 UNK        -0.4015 
     20 C          24.4683   -0.4793   -7.6393 C.2       4 UNK         0.4946 
     21 O          24.9994    0.4523   -8.2429 O.2       4 UNK        -0.5353 
     22 CA         22.9340   -0.5804   -7.6235 C.3       4 UNK         0.0277 
     23 CB         22.4404   -1.7188   -8.5378 C.3       4 UNK        -0.1981 
     24 N          22.3481   -0.6644   -6.2772 N.am      4 UNK        -0.4209 
     25 C          22.4723   -1.6395   -5.3657 C.2       3 UNK         0.4942 
     26 O          23.1083   -2.6820   -5.5435 O.2       3 UNK        -0.5208 
     27 CA         21.7423   -1.4053   -4.0331 C.3       3 UNK         0.0250 
     28 CB         20.3427   -2.0403   -4.0733 C.3       3 UNK        -0.1990 
     29 N          22.4749   -1.9351   -2.8807 N.am      3 UNK        -0.4232 
     30 C          23.6875   -1.5312   -2.4767 C.2       2 UNK         0.4993 
     31 O          24.3376   -0.6500   -3.0466 O.2       2 UNK        -0.5286 
     32 CA         24.2197   -2.1788   -1.1795 C.3       2 UNK         0.0209 
     33 CB         23.9567   -3.7017   -1.1106 C.3       2 UNK        -0.1931 
     34 N          25.6349   -1.8750   -0.9208 N.am      2 UNK        -0.4546 
     35 C          26.6932   -2.2832   -1.6361 C.2       1 UNK         0.5154 
     36 O          26.6223   -3.0266   -2.6181 O.2       1 UNK        -0.5181 
     37 C          27.2831   -0.2740   -6.2220 C.2       5 UNK         0.5014 
     38 O          28.4462   -0.0006   -6.5071 O.2       5 UNK        -0.5248 
     39 N          26.5379    0.4825   -5.4010 N.am      6 UNK        -0.4434 
     40 CA         26.9462    1.7901   -4.8777 C.3       6 UNK         0.0363 
     41 CB         25.9148    2.2658   -3.8429 C.3       6 UNK        -0.1936 
     42 C          27.1575    2.8676   -5.9623 C.2       6 UNK         0.5081 
     43 O          27.8874    3.8258   -5.7074 O.2       6 UNK        -0.5248 
     44 N          26.5258    2.7059   -7.1337 N.am      7 UNK        -0.4718 
     45 CA         26.6686    3.5912   -8.2909 C.3       7 UNK         0.0273 
     46 CB         25.2756    4.0586   -8.7448 C.3       7 UNK        -0.1935 
     47 C          27.4029    2.8931   -9.4456 C.2       7 UNK         0.5018 
     48 O          28.2520    3.5179  -10.0824 O.2       7 UNK        -0.5186 
     49 N          27.0595    1.6253   -9.7129 N.am      8 UNK        -0.4240 
     50 CA         27.6284    0.8066  -10.7824 C.3       8 UNK         0.0235 
     51 CB         26.6983   -0.3895  -11.0537 C.3       8 UNK        -0.2000 
     52 C          29.0541    0.3516  -10.4326 C.2       8 UNK         0.4941 
     53 O          29.2228   -0.6254   -9.7013 O.2       8 UNK        -0.5273 
     54 N          30.0503    1.0817  -10.9522 N.am      9 UNK        -0.4262 
     55 CA         31.5026    0.8991  -10.8088 C.3       9 UNK         0.0264 
     56 CB         31.9668   -0.4736  -11.3356 C.3       9 UNK        -0.1955 
     57 C          32.0437    1.1643   -9.3932 C.2       9 UNK         0.5031 
     58 O          33.0307    1.8904   -9.2646 O.2       9 UNK        -0.5390 
     59 N          31.4085    0.5787   -8.3680 N.am      10 UNK        -0.4204 
     60 CA         31.6699    0.7569   -6.9325 C.3       10 UNK         0.0237 
     61 CB         31.1819    2.1545   -6.4922 C.3       10 UNK        -0.1985 
     62 C          33.1264    0.4788   -6.5007 C.2       10 UNK         0.4970 
     63 O          33.6109    1.1087   -5.5583 O.2       10 UNK        -0.4914 
     64 N          33.8043   -0.4338   -7.2130 N.am      11 UNK        -0.4285 
     65 CA         35.2461   -0.7213   -7.1020 C.3       11 UNK         0.1007 
     66 C          36.1767    0.4884   -7.4411 C.2       11 UNK         0.5703 
     67 N          35.7091    1.5153   -8.1427 N.am      11 UNK        -0.7361 
     68 O          37.3581    0.4852   -7.1016 O.2       11 UNK        -0.4986 
     69 C69        35.6239   -1.4384   -5.7704 C.3       12 UNK        -0.0947 
     70 S70        35.0308   -3.1629   -5.7221 S.3       12 UNK        -0.2240 
     71 C71        34.2102   -3.2560   -4.1006 C.3       12 UNK         0.0194 
     72 H72        31.2045   -4.1517   -1.8781 H         1 UNK         0.0906 
     73 H73        30.9665   -5.1897   -0.4752 H         1 UNK         0.0906 
     74 H74        30.1082   -5.5339   -1.9806 H         1 UNK         0.0906 
     75 H75        29.7836   -2.4180   -2.2003 H         1 UNK         0.3140 
     76 H76        28.0442   -1.5862   -0.1137 H         1 UNK         0.1085 
     77 H77        28.0918   -0.3863   -2.9313 H         1 UNK         0.0836 
     78 H78        27.6233    0.3828   -1.4547 H         1 UNK         0.0836 
     79 H79        31.5519    0.9410   -3.3377 H         1 UNK         0.0731 
     80 H80        29.9584    0.7281   -4.0022 H         1 UNK         0.0731 
     81 H81        33.1431   -0.8782   -3.2737 H         1 UNK         0.1312 
     82 H82        32.0818   -4.6148   -5.0853 H         1 UNK         0.1406 
     83 H83        29.0880   -1.6265   -4.4465 H         1 UNK         0.1631 
     84 H84        28.6630   -4.3819   -4.5908 H         1 UNK         0.0717 
     85 H85        29.8500   -5.1308   -5.6205 H         1 UNK         0.0717 
     86 H86        26.2795   -3.6016   -6.3369 H         1 UNK         0.0934 
     87 H87        27.1063   -2.7119   -5.1018 H         1 UNK         0.0934 
     88 H88        26.9675   -1.5342   -7.9001 H         1 UNK         0.0739 
     89 H89        24.6063   -2.0927   -6.4444 H         1 UNK         0.3093 
     90 H90        22.5612    0.3543   -8.0463 H         1 UNK         0.0818 
     91 H91        21.3521   -1.7353   -8.5956 H         1 UNK         0.0819 
     92 H92        22.8163   -1.5906   -9.5538 H         1 UNK         0.0819 
     93 H93        22.7710   -2.6991   -8.1934 H         1 UNK         0.0819 
     94 H94        21.8076    0.1472   -6.0095 H         1 UNK         0.3041 
     95 H95        21.6321   -0.3295   -3.8800 H         1 UNK         0.0784 
     96 H96        19.7562   -1.6455   -4.9043 H         1 UNK         0.0793 
     97 H97        20.3952   -3.1228   -4.1985 H         1 UNK         0.0793 
     98 H98        19.7847   -1.8337   -3.1597 H         1 UNK         0.0793 
     99 H99        22.0230   -2.6780   -2.3687 H         1 UNK         0.3024 
    100 H100       23.6642   -1.7110   -0.3648 H         1 UNK         0.1171 
    101 H101       24.4329   -4.1457   -0.2362 H         1 UNK         0.0786 
    102 H102       22.8917   -3.9219   -1.0341 H         1 UNK         0.0786 
    103 H103       24.3345   -4.2199   -1.9929 H         1 UNK         0.0786 
    104 H104       25.7983   -1.2325   -0.1580 H         1 UNK         0.2977 
    105 H105       25.6065    0.1693   -5.1623 H         1 UNK         0.3127 
    106 H106       27.9012    1.6637   -4.3674 H         1 UNK         0.0770 
    107 H107       26.1865    3.2420   -3.4388 H         1 UNK         0.0814 
    108 H108       25.8521    1.5772   -3.0005 H         1 UNK         0.0814 
    109 H109       24.9187    2.3571   -4.2776 H         1 UNK         0.0814 
    110 H110       25.9620    1.8737   -7.2748 H         1 UNK         0.2983 
    111 H111       27.2501    4.4771   -8.0261 H         1 UNK         0.0947 
    112 H112       25.3475    4.7151   -9.6131 H         1 UNK         0.0806 
    113 H113       24.7717    4.6182   -7.9567 H         1 UNK         0.0806 
    114 H114       24.6352    3.2196   -9.0205 H         1 UNK         0.0806 
    115 H115       26.3355    1.1840   -9.1481 H         1 UNK         0.3000 
    116 H116       27.6657    1.4065  -11.6944 H         1 UNK         0.0850 
    117 H117       27.0911   -1.0136  -11.8573 H         1 UNK         0.0810 
    118 H118       25.7043   -0.0581  -11.3544 H         1 UNK         0.0810 
    119 H119       26.5843   -1.0247  -10.1753 H         1 UNK         0.0810 
    120 H120       29.7824    1.9118  -11.4650 H         1 UNK         0.3040 
    121 H121       31.9503    1.6568  -11.4541 H         1 UNK         0.0766 
    122 H122       31.5746   -1.2983  -10.7399 H         1 UNK         0.0812 
    123 H123       33.0548   -0.5491  -11.3139 H         1 UNK         0.0812 
    124 H124       31.6527   -0.6279  -12.3678 H         1 UNK         0.0812 
    125 H125       30.6008    0.0015   -8.6035 H         1 UNK         0.3205 
    126 H126       31.0622    0.0107   -6.4219 H         1 UNK         0.0754 
    127 H127       31.2632    2.2881   -5.4140 H         1 UNK         0.0769 
    128 H128       30.1349    2.3043   -6.7558 H         1 UNK         0.0769 
    129 H129       31.7623    2.9493   -6.9616 H         1 UNK         0.0769 
    130 H130       33.3228   -0.9007   -7.9664 H         1 UNK         0.2981 
    131 H131       35.4541   -1.4232   -7.9101 H         1 UNK         0.0541 
    132 H132       34.7415    1.5503   -8.4517 H         1 UNK         0.3459 
    133 H133       36.3288    2.2781   -8.3627 H         1 UNK         0.3459 
    134 H134       35.2528   -0.8824   -4.9092 H         1 UNK         0.0612 
    135 H135       36.7061   -1.4939   -5.6443 H         1 UNK         0.0612 
    136 H136       34.7715   -2.6795   -3.3635 H         1 UNK         0.0624 
    137 H137       34.2350   -4.2913   -3.7575 H         1 UNK         0.0624 
@<TRIPOS>BOND
     1    1    2 1    
     2    1   72 1    
     3    1   73 1    
     4    1   74 1    
     5    2    3 2    
     6    2    4 am   BACKBONE|DICT|INTERRES
     7    4    5 1    
     8    4   75 1    
     9    5    6 1    
    10    5   35 1    
    11    5   76 1    
    12    6    7 1    
    13    6   77 1    
    14    6   78 1    
    15    7    8 1    
    16    8    9 1    
    17    8   79 1    
    18    8   80 1    
    19    9   10 ar   
    20    9   14 ar   
    21   10   11 ar   
    22   10   81 1    
    23   11   12 ar   
    24   11   71 1    
    25   12   13 ar   
    26   12   82 1    
    27   13   14 ar   
    28   13   15 1    
    29   14   83 1    
    30   15   16 1    
    31   15   84 1    
    32   15   85 1    
    33   16   17 1    
    34   17   18 1    
    35   17   86 1    
    36   17   87 1    
    37   18   19 1    
    38   18   37 1    
    39   18   88 1    
    40   19   20 am   BACKBONE|DICT|INTERRES
    41   19   89 1    
    42   20   21 2    
    43   20   22 1    
    44   22   23 1    
    45   22   24 1    
    46   22   90 1    
    47   23   91 1    
    48   23   92 1    
    49   23   93 1    
    50   24   25 am   BACKBONE|DICT|INTERRES
    51   24   94 1    
    52   25   26 2    
    53   25   27 1    
    54   27   28 1    
    55   27   29 1    
    56   27   95 1    
    57   28   96 1    
    58   28   97 1    
    59   28   98 1    
    60   29   30 am   BACKBONE|DICT|INTERRES
    61   29   99 1    
    62   30   31 2    
    63   30   32 1    
    64   32   33 1    
    65   32   34 1    
    66   32  100 1    
    67   33  101 1    
    68   33  102 1    
    69   33  103 1    
    70   34   35 am   BACKBONE|DICT|INTERRES
    71   34  104 1    
    72   35   36 2    
    73   37   38 2    
    74   37   39 am   BACKBONE|DICT|INTERRES
    75   39   40 1    
    76   39  105 1    
    77   40   41 1    
    78   40   42 1    
    79   40  106 1    
    80   41  107 1    
    81   41  108 1    
    82   41  109 1    
    83   42   43 2    
    84   42   44 am   BACKBONE|DICT|INTERRES
    85   44   45 1    
    86   44  110 1    
    87   45   46 1    
    88   45   47 1    
    89   45  111 1    
    90   46  112 1    
    91   46  113 1    
    92   46  114 1    
    93   47   48 2    
    94   47   49 am   BACKBONE|DICT|INTERRES
    95   49   50 1    
    96   49  115 1    
    97   50   51 1    
    98   50   52 1    
    99   50  116 1    
   100   51  117 1    
   101   51  118 1    
   102   51  119 1    
   103   52   53 2    
   104   52   54 am   BACKBONE|DICT|INTERRES
   105   54   55 1    
   106   54  120 1    
   107   55   56 1    
   108   55   57 1    
   109   55  121 1    
   110   56  122 1    
   111   56  123 1    
   112   56  124 1    
   113   57   58 2    
   114   57   59 am   BACKBONE|DICT|INTERRES
   115   59   60 1    
   116   59  125 1    
   117   60   61 1    
   118   60   62 1    
   119   60  126 1    
   120   61  127 1    
   121   61  128 1    
   122   61  129 1    
   123   62   63 2    
   124   62   64 am   BACKBONE|DICT|INTERRES
   125   64   65 1    
   126   64  130 1    
   127   65   66 1    
   128   65   69 1    
   129   65  131 1    
   130   66   67 am   BACKBONE|DICT|INTERRES
   131   66   68 2    
   132   67  132 1    
   133   67  133 1    
   134   69   70 1    
   135   69  134 1    
   136   69  135 1    
   137   70   71 1    
   138   71  136 1    
   139   71  137 1    
@<TRIPOS>SUBSTRUCTURE
     1 UNK         1 GROUP             0       ****    0 ROOT    
