@<TRIPOS>MOLECULE
3R137
137   139    1
SMALL
USER_CHARGES


@<TRIPOS>ATOM
      1 CA         29.2501   -0.2173   -1.2139 C.3       0 UNK        -0.2020 
      2 C          29.5308   -0.8321    0.1539 C.2       0 UNK         0.4855 
      3 O          30.0048   -0.1304    1.0452 O.2       0 UNK        -0.5197 
      4 N          29.2752   -2.1290    0.3692 N.am      1 UNK        -0.4892 
      5 CA         28.6365   -3.0752   -0.5556 C.3       1 UNK         0.0835 
      6 C6         28.9375   -4.5475   -0.1726 C.3       12 UNK        -0.0855 
      7 S7         30.7270   -4.8728    0.0199 S.3       12 UNK        -0.2931 
      8 C8         31.1742   -5.6183   -1.5803 C.3       12 UNK         0.0378 
      9 C9         30.8940   -4.6919   -2.7562 C.ar      12 UNK        -0.0802 
     10 C10        31.6001   -3.4912   -2.9022 C.ar      12 UNK        -0.0944 
     11 C11        31.3510   -2.6399   -3.9855 C.ar      12 UNK        -0.0787 
     12 C12        30.3824   -3.0117   -4.9250 C.ar      12 UNK        -0.0862 
     13 C13        29.6806   -4.2116   -4.7975 C.ar      12 UNK        -0.0733 
     14 C14        29.9344   -5.0466   -3.7085 C.ar      12 UNK        -0.0832 
     15 C15        28.6677   -4.6088   -5.8559 C.3       12 UNK         0.0240 
     16 S16        26.9921   -4.0778   -5.3938 S.3       12 UNK        -0.2522 
     17 C17        26.2402   -3.8888   -7.0476 C.3       12 UNK        -0.0967 
     18 CA         26.0499   -2.4297   -7.5432 C.3       5 UNK         0.0660 
     19 N          24.8935   -1.7613   -6.9437 N.am      5 UNK        -0.4015 
     20 C          24.2310   -0.7625   -7.5474 C.2       4 UNK         0.4946 
     21 O          24.5213   -0.3225   -8.6613 O.2       4 UNK        -0.5353 
     22 CA         23.0578   -0.1353   -6.7777 C.3       4 UNK         0.0277 
     23 CB         21.8061   -1.0230   -6.8728 C.3       4 UNK        -0.1981 
     24 N          23.3702    0.1303   -5.3727 N.am      4 UNK        -0.4209 
     25 C          24.2902    1.0113   -4.9557 C.2       3 UNK         0.4942 
     26 O          24.9797    1.6961   -5.7106 O.2       3 UNK        -0.5208 
     27 CA         24.4999    1.1243   -3.4364 C.3       3 UNK         0.0250 
     28 CB         23.4846    2.1025   -2.8239 C.3       3 UNK        -0.1990 
     29 N          24.4462   -0.1557   -2.7185 N.am      3 UNK        -0.4232 
     30 C          25.2372   -1.2060   -2.9753 C.2       2 UNK         0.4993 
     31 O          26.0206   -1.2584   -3.9253 O.2       2 UNK        -0.5286 
     32 CA         25.1449   -2.4014   -2.0233 C.3       2 UNK         0.0209 
     33 CB         24.3101   -3.5326   -2.6453 C.3       2 UNK        -0.1931 
     34 N          26.5105   -2.8677   -1.7783 N.am      2 UNK        -0.4546 
     35 C          27.1169   -2.8150   -0.5870 C.2       1 UNK         0.5154 
     36 O          26.5289   -2.5552    0.4665 O.2       1 UNK        -0.5181 
     37 C          27.3133   -1.5511   -7.4458 C.2       5 UNK         0.5014 
     38 O          28.0946   -1.5263   -8.3945 O.2       5 UNK        -0.5248 
     39 N          27.4725   -0.8128   -6.3371 N.am      6 UNK        -0.4434 
     40 CA         28.5596    0.1412   -6.1120 C.3       6 UNK         0.0363 
     41 CB         28.5011    0.6453   -4.6658 C.3       6 UNK        -0.1936 
     42 C          28.5610    1.3056   -7.1108 C.2       6 UNK         0.5081 
     43 O          29.6325    1.6869   -7.5808 O.2       6 UNK        -0.5248 
     44 N          27.3715    1.8139   -7.4621 N.am      7 UNK        -0.4718 
     45 CA         27.1865    2.8227   -8.5078 C.3       7 UNK         0.0273 
     46 CB         25.7334    3.3224   -8.4922 C.3       7 UNK        -0.1935 
     47 C          27.5682    2.3118   -9.9081 C.2       7 UNK         0.5018 
     48 O          28.1552    3.0671  -10.6830 O.2       7 UNK        -0.5186 
     49 N          27.2461    1.0434  -10.2006 N.am      8 UNK        -0.4240 
     50 CA         27.5883    0.3737  -11.4574 C.3       8 UNK         0.0235 
     51 CB         26.7253   -0.8881  -11.6231 C.3       8 UNK        -0.2000 
     52 C          29.0857    0.0344  -11.5526 C.2       8 UNK         0.4941 
     53 O          29.6968    0.2777  -12.5936 O.2       8 UNK        -0.5273 
     54 N          29.6487   -0.5138  -10.4672 N.am      9 UNK        -0.4262 
     55 CA         31.0580   -0.8989  -10.3506 C.3       9 UNK         0.0264 
     56 CB         31.2093   -1.8728   -9.1710 C.3       9 UNK        -0.1955 
     57 C          32.0217    0.2915  -10.1906 C.2       9 UNK         0.5031 
     58 O          33.2165    0.1195  -10.4364 O.2       9 UNK        -0.5390 
     59 N          31.4944    1.4554   -9.7829 N.am      10 UNK        -0.4204 
     60 CA         32.1970    2.7023   -9.4656 C.3       10 UNK         0.0237 
     61 CB         32.9379    3.2696  -10.6963 C.3       10 UNK        -0.1985 
     62 C          33.0909    2.5432   -8.2225 C.2       10 UNK         0.4970 
     63 O          34.2957    2.7983   -8.2830 O.2       10 UNK        -0.4914 
     64 N          32.4690    2.1247   -7.1165 N.am      11 UNK        -0.4285 
     65 CA         33.0902    1.9548   -5.7966 C.3       11 UNK         0.1007 
     66 C          32.1612    2.4520   -4.6547 C.2       11 UNK         0.5703 
     67 N          32.5077    2.2004   -3.3990 N.am      11 UNK        -0.7361 
     68 O          31.1477    3.1076   -4.8875 O.2       11 UNK        -0.4986 
     69 C69        33.6858    0.5303   -5.5937 C.3       12 UNK        -0.0947 
     70 S70        32.5059   -0.8438   -5.8267 S.3       12 UNK        -0.2240 
     71 C71        32.1216   -1.3235   -4.1069 C.3       12 UNK         0.0194 
     72 H72        29.6106    0.8105   -1.2528 H         1 UNK         0.0906 
     73 H73        29.7618   -0.7721   -1.9985 H         1 UNK         0.0906 
     74 H74        28.1816   -0.2012   -1.4260 H         1 UNK         0.0906 
     75 H75        29.4725   -2.5091    1.2836 H         1 UNK         0.3140 
     76 H76        29.0345   -2.9078   -1.5573 H         1 UNK         0.1085 
     77 H77        28.5230   -5.2310   -0.9162 H         1 UNK         0.0836 
     78 H78        28.4542   -4.8029    0.7729 H         1 UNK         0.0836 
     79 H79        32.2367   -5.8650   -1.5687 H         1 UNK         0.0731 
     80 H80        30.6431   -6.5651   -1.6910 H         1 UNK         0.0731 
     81 H81        32.3405   -3.2190   -2.1621 H         1 UNK         0.1312 
     82 H82        30.1780   -2.3798   -5.7746 H         1 UNK         0.1406 
     83 H83        29.3884   -5.9753   -3.6099 H         1 UNK         0.1631 
     84 H84        28.6759   -5.6893   -6.0065 H         1 UNK         0.0717 
     85 H85        28.9522   -4.1637   -6.8109 H         1 UNK         0.0717 
     86 H86        26.8380   -4.4404   -7.7753 H         1 UNK         0.0934 
     87 H87        25.2765   -4.4005   -7.0377 H         1 UNK         0.0934 
     88 H88        25.8367   -2.5171   -8.6114 H         1 UNK         0.0739 
     89 H89        24.6471   -2.0304   -6.0021 H         1 UNK         0.3093 
     90 H90        22.8309    0.8220   -7.2524 H         1 UNK         0.0818 
     91 H91        20.9423   -0.5403   -6.4153 H         1 UNK         0.0819 
     92 H92        21.5487   -1.2222   -7.9142 H         1 UNK         0.0819 
     93 H93        21.9511   -1.9867   -6.3830 H         1 UNK         0.0819 
     94 H94        22.8545   -0.3893   -4.6776 H         1 UNK         0.3041 
     95 H95        25.4985    1.5370   -3.2805 H         1 UNK         0.0784 
     96 H96        23.5184    3.0680   -3.3312 H         1 UNK         0.0793 
     97 H97        22.4629    1.7289   -2.9023 H         1 UNK         0.0793 
     98 H98        23.6957    2.2866   -1.7703 H         1 UNK         0.0793 
     99 H99        23.8176   -0.1997   -1.9289 H         1 UNK         0.3024 
    100 H100       24.6647   -2.0821   -1.0955 H         1 UNK         0.1171 
    101 H101       23.2814   -3.2115   -2.8131 H         1 UNK         0.0786 
    102 H102       24.2751   -4.4024   -1.9892 H         1 UNK         0.0786 
    103 H103       24.7099   -3.8567   -3.6055 H         1 UNK         0.0786 
    104 H104       27.0532   -3.0370   -2.6163 H         1 UNK         0.2977 
    105 H105       26.8201   -0.9411   -5.5647 H         1 UNK         0.3127 
    106 H106       29.5025   -0.3852   -6.2498 H         1 UNK         0.0770 
    107 H107       27.5891    1.2097   -4.4724 H         1 UNK         0.0814 
    108 H108       29.3445    1.2946   -4.4387 H         1 UNK         0.0814 
    109 H109       28.5355   -0.1887   -3.9672 H         1 UNK         0.0814 
    110 H110       26.5370    1.4977   -6.9760 H         1 UNK         0.2983 
    111 H111       27.8410    3.6661   -8.2766 H         1 UNK         0.0947 
    112 H112       25.5686    4.0743   -9.2651 H         1 UNK         0.0806 
    113 H113       25.4838    3.7812   -7.5354 H         1 UNK         0.0806 
    114 H114       25.0258    2.5106   -8.6669 H         1 UNK         0.0806 
    115 H115       26.7563    0.4965   -9.5045 H         1 UNK         0.3000 
    116 H116       27.3497    1.0533  -12.2786 H         1 UNK         0.0850 
    117 H117       26.9315   -1.3780  -12.5756 H         1 UNK         0.0810 
    118 H118       25.6623   -0.6459  -11.6057 H         1 UNK         0.0810 
    119 H119       26.9131   -1.6173  -10.8348 H         1 UNK         0.0810 
    120 H120       29.0524   -0.7450   -9.6718 H         1 UNK         0.3040 
    121 H121       31.3434   -1.4249  -11.2641 H         1 UNK         0.0766 
    122 H122       32.2483   -2.1778   -9.0388 H         1 UNK         0.0812 
    123 H123       30.6208   -2.7773   -9.3248 H         1 UNK         0.0812 
    124 H124       30.8801   -1.4178   -8.2368 H         1 UNK         0.0812 
    125 H125       30.5167    1.4445   -9.5160 H         1 UNK         0.3205 
    126 H126       31.4224    3.4219   -9.1952 H         1 UNK         0.0754 
    127 H127       33.3514    4.2550  -10.4786 H         1 UNK         0.0769 
    128 H128       32.2644    3.3805  -11.5462 H         1 UNK         0.0769 
    129 H129       33.7673    2.6335  -11.0063 H         1 UNK         0.0769 
    130 H130       31.4625    1.9733   -7.1457 H         1 UNK         0.2981 
    131 H131       33.9280    2.6524   -5.7467 H         1 UNK         0.0541 
    132 H132       33.3536    1.7002   -3.1790 H         1 UNK         0.3459 
    133 H133       31.9223    2.5462   -2.6557 H         1 UNK         0.3459 
    134 H134       34.1735    0.4396   -4.6227 H         1 UNK         0.0612 
    135 H135       34.4843    0.3817   -6.3219 H         1 UNK         0.0612 
    136 H136       33.0571   -1.3936   -3.5501 H         1 UNK         0.0624 
    137 H137       31.5366   -0.5292   -3.6435 H         1 UNK         0.0624 
@<TRIPOS>BOND
     1    1    2 1    
     2    1   72 1    
     3    1   73 1    
     4    1   74 1    
     5    2    3 2    
     6    2    4 am   BACKBONE|DICT|INTERRES
     7    4    5 1    
     8    4   75 1    
     9    5    6 1    
    10    5   35 1    
    11    5   76 1    
    12    6    7 1    
    13    6   77 1    
    14    6   78 1    
    15    7    8 1    
    16    8    9 1    
    17    8   79 1    
    18    8   80 1    
    19    9   10 ar   
    20    9   14 ar   
    21   10   11 ar   
    22   10   81 1    
    23   11   12 ar   
    24   11   71 1    
    25   12   13 ar   
    26   12   82 1    
    27   13   14 ar   
    28   13   15 1    
    29   14   83 1    
    30   15   16 1    
    31   15   84 1    
    32   15   85 1    
    33   16   17 1    
    34   17   18 1    
    35   17   86 1    
    36   17   87 1    
    37   18   19 1    
    38   18   37 1    
    39   18   88 1    
    40   19   20 am   BACKBONE|DICT|INTERRES
    41   19   89 1    
    42   20   21 2    
    43   20   22 1    
    44   22   23 1    
    45   22   24 1    
    46   22   90 1    
    47   23   91 1    
    48   23   92 1    
    49   23   93 1    
    50   24   25 am   BACKBONE|DICT|INTERRES
    51   24   94 1    
    52   25   26 2    
    53   25   27 1    
    54   27   28 1    
    55   27   29 1    
    56   27   95 1    
    57   28   96 1    
    58   28   97 1    
    59   28   98 1    
    60   29   30 am   BACKBONE|DICT|INTERRES
    61   29   99 1    
    62   30   31 2    
    63   30   32 1    
    64   32   33 1    
    65   32   34 1    
    66   32  100 1    
    67   33  101 1    
    68   33  102 1    
    69   33  103 1    
    70   34   35 am   BACKBONE|DICT|INTERRES
    71   34  104 1    
    72   35   36 2    
    73   37   38 2    
    74   37   39 am   BACKBONE|DICT|INTERRES
    75   39   40 1    
    76   39  105 1    
    77   40   41 1    
    78   40   42 1    
    79   40  106 1    
    80   41  107 1    
    81   41  108 1    
    82   41  109 1    
    83   42   43 2    
    84   42   44 am   BACKBONE|DICT|INTERRES
    85   44   45 1    
    86   44  110 1    
    87   45   46 1    
    88   45   47 1    
    89   45  111 1    
    90   46  112 1    
    91   46  113 1    
    92   46  114 1    
    93   47   48 2    
    94   47   49 am   BACKBONE|DICT|INTERRES
    95   49   50 1    
    96   49  115 1    
    97   50   51 1    
    98   50   52 1    
    99   50  116 1    
   100   51  117 1    
   101   51  118 1    
   102   51  119 1    
   103   52   53 2    
   104   52   54 am   BACKBONE|DICT|INTERRES
   105   54   55 1    
   106   54  120 1    
   107   55   56 1    
   108   55   57 1    
   109   55  121 1    
   110   56  122 1    
   111   56  123 1    
   112   56  124 1    
   113   57   58 2    
   114   57   59 am   BACKBONE|DICT|INTERRES
   115   59   60 1    
   116   59  125 1    
   117   60   61 1    
   118   60   62 1    
   119   60  126 1    
   120   61  127 1    
   121   61  128 1    
   122   61  129 1    
   123   62   63 2    
   124   62   64 am   BACKBONE|DICT|INTERRES
   125   64   65 1    
   126   64  130 1    
   127   65   66 1    
   128   65   69 1    
   129   65  131 1    
   130   66   67 am   BACKBONE|DICT|INTERRES
   131   66   68 2    
   132   67  132 1    
   133   67  133 1    
   134   69   70 1    
   135   69  134 1    
   136   69  135 1    
   137   70   71 1    
   138   71  136 1    
   139   71  137 1    
@<TRIPOS>SUBSTRUCTURE
     1 UNK         1 GROUP             0       ****    0 ROOT    
