@<TRIPOS>MOLECULE
3R137
137   139    1
SMALL
USER_CHARGES


@<TRIPOS>ATOM
      1 CA         24.1042   -4.7319   -0.5158 C.3       0 UNK        -0.2020 
      2 C          25.5726   -4.4070   -0.2865 C.2       0 UNK         0.4855 
      3 O          26.0798   -4.6023    0.8181 O.2       0 UNK        -0.5197 
      4 N          26.2576   -3.9112   -1.3201 N.am      1 UNK        -0.4892 
      5 CA         27.6586   -3.5006   -1.2992 C.3       1 UNK         0.0835 
      6 C6         28.6039   -4.7073   -1.5355 C.3       12 UNK        -0.0855 
      7 S7         30.3791   -4.3351   -1.2892 S.3       12 UNK        -0.2931 
      8 C8         31.1847   -5.3684   -2.5601 C.3       12 UNK         0.0378 
      9 C9         31.0157   -4.8027   -3.9647 C.ar      12 UNK        -0.0802 
     10 C10        31.9334   -3.8765   -4.4755 C.ar      12 UNK        -0.0944 
     11 C11        31.7756   -3.3505   -5.7676 C.ar      12 UNK        -0.0787 
     12 C12        30.6763   -3.7544   -6.5306 C.ar      12 UNK        -0.0862 
     13 C13        29.7571   -4.6803   -6.0330 C.ar      12 UNK        -0.0733 
     14 C14        29.9458   -5.2187   -4.7608 C.ar      12 UNK        -0.0832 
     15 C15        28.5405   -5.0786   -6.8529 C.3       12 UNK         0.0240 
     16 S16        27.0712   -4.1400   -6.3301 S.3       12 UNK        -0.2522 
     17 C17        27.5715   -2.4501   -6.7977 C.3       12 UNK        -0.0967 
     18 CA         26.3578   -1.5096   -6.9721 C.3       5 UNK         0.0660 
     19 N          25.6609   -1.2939   -5.7010 N.am      5 UNK        -0.4015 
     20 C          24.3837   -0.9091   -5.5815 C.2       4 UNK         0.4946 
     21 O          23.6468   -0.6631   -6.5368 O.2       4 UNK        -0.5353 
     22 CA         23.8494   -0.7500   -4.1513 C.3       4 UNK         0.0277 
     23 CB         23.4657   -2.1156   -3.5570 C.3       4 UNK        -0.1981 
     24 N          24.8335   -0.0923   -3.2896 N.am      4 UNK        -0.4209 
     25 C          25.0170    1.2348   -3.2342 C.2       3 UNK         0.4942 
     26 O          24.3390    2.0464   -3.8642 O.2       3 UNK        -0.5208 
     27 CA         26.1518    1.7489   -2.3310 C.3       3 UNK         0.0250 
     28 CB         25.6297    2.0162   -0.9101 C.3       3 UNK        -0.1990 
     29 N          27.2958    0.8365   -2.2648 N.am      3 UNK        -0.4232 
     30 C          28.1302    0.5928   -3.2854 C.2       2 UNK         0.4993 
     31 O          28.0477    1.1375   -4.3823 O.2       2 UNK        -0.5286 
     32 CA         29.2369   -0.4462   -3.0508 C.3       2 UNK         0.0209 
     33 CB         30.4718    0.2485   -2.4605 C.3       2 UNK        -0.1931 
     34 N          28.8569   -1.5564   -2.1727 N.am      2 UNK        -0.4546 
     35 C          27.8138   -2.3784   -2.3425 C.2       1 UNK         0.5154 
     36 O          26.9776   -2.2518   -3.2452 O.2       1 UNK        -0.5181 
     37 C          26.7888   -0.2044   -7.6738 C.2       5 UNK         0.5014 
     38 O          27.2870   -0.2925   -8.7959 O.2       5 UNK        -0.5248 
     39 N          26.6034    0.9633   -7.0377 N.am      6 UNK        -0.4434 
     40 CA         27.0923    2.2876   -7.4492 C.3       6 UNK         0.0363 
     41 CB         26.5240    3.3543   -6.4981 C.3       6 UNK        -0.1936 
     42 C          26.8253    2.6985   -8.9087 C.2       6 UNK         0.5081 
     43 O          27.6237    3.4442   -9.4761 O.2       6 UNK        -0.5248 
     44 N          25.7272    2.2033   -9.4954 N.am      7 UNK        -0.4718 
     45 CA         25.3796    2.3948  -10.9065 C.3       7 UNK         0.0273 
     46 CB         23.9283    1.9405  -11.1311 C.3       7 UNK        -0.1935 
     47 C          26.3273    1.6691  -11.8831 C.2       7 UNK         0.5018 
     48 O          26.4440    2.1017  -13.0305 O.2       7 UNK        -0.5186 
     49 N          26.9733    0.5896  -11.4229 N.am      8 UNK        -0.4240 
     50 CA         27.9518   -0.1956  -12.1725 C.3       8 UNK         0.0235 
     51 CB         27.6423   -1.6938  -12.0082 C.3       8 UNK        -0.2000 
     52 C          29.3783    0.1191  -11.7009 C.2       8 UNK         0.4941 
     53 O          30.2410    0.3772  -12.5416 O.2       8 UNK        -0.5273 
     54 N          29.6072    0.1018  -10.3806 N.am      9 UNK        -0.4262 
     55 CA         30.8983    0.3732   -9.7543 C.3       9 UNK         0.0264 
     56 CB         31.8304   -0.8483   -9.8805 C.3       9 UNK        -0.1955 
     57 C          30.6780    0.7366   -8.2836 C.2       9 UNK         0.5031 
     58 O          30.1769   -0.0935   -7.5241 O.2       9 UNK        -0.5390 
     59 N          31.0827    1.9518   -7.9004 N.am      10 UNK        -0.4204 
     60 CA         31.0816    2.4262   -6.5187 C.3       10 UNK         0.0237 
     61 CB         30.7024    3.9191   -6.4956 C.3       10 UNK        -0.1985 
     62 C          32.4710    2.1737   -5.9147 C.2       10 UNK         0.4970 
     63 O          33.3554    3.0230   -6.0406 O.2       10 UNK        -0.4914 
     64 N          32.6483    0.9923   -5.3130 N.am      11 UNK        -0.4285 
     65 CA         33.8623    0.5854   -4.5858 C.3       11 UNK         0.1007 
     66 C          34.1660    1.4817   -3.3497 C.2       11 UNK         0.5703 
     67 N          35.4268    1.5673   -2.9468 N.am      11 UNK        -0.7361 
     68 O          33.2773    2.0680   -2.7349 O.2       11 UNK        -0.4986 
     69 C69        33.7917   -0.9147   -4.1858 C.3       12 UNK        -0.0947 
     70 S70        34.3060   -2.0264   -5.5341 S.3       12 UNK        -0.2240 
     71 C71        32.7350   -2.3418   -6.4041 C.3       12 UNK         0.0194 
     72 H72        23.4761   -4.0759    0.0876 H         1 UNK         0.0906 
     73 H73        23.8176   -4.6118   -1.5612 H         1 UNK         0.0906 
     74 H74        23.8984   -5.7629   -0.2260 H         1 UNK         0.0906 
     75 H75        25.8038   -3.7208   -2.2052 H         1 UNK         0.3140 
     76 H76        27.8749   -3.0676   -0.3197 H         1 UNK         0.1085 
     77 H77        28.3523   -5.5082   -0.8384 H         1 UNK         0.0836 
     78 H78        28.4274   -5.1209   -2.5255 H         1 UNK         0.0836 
     79 H79        32.2473   -5.4448   -2.3244 H         1 UNK         0.0731 
     80 H80        30.7914   -6.3849   -2.5063 H         1 UNK         0.0731 
     81 H81        32.7658   -3.5757   -3.8566 H         1 UNK         0.1312 
     82 H82        30.5300   -3.3351   -7.5170 H         1 UNK         0.1406 
     83 H83        29.2409   -5.9484   -4.3883 H         1 UNK         0.1631 
     84 H84        28.7195   -4.9207   -7.9176 H         1 UNK         0.0717 
     85 H85        28.3440   -6.1447   -6.7302 H         1 UNK         0.0717 
     86 H86        28.2592   -2.0582   -6.0452 H         1 UNK         0.0934 
     87 H87        28.1433   -2.5160   -7.7258 H         1 UNK         0.0934 
     88 H88        25.6595   -1.9949   -7.6575 H         1 UNK         0.0739 
     89 H89        26.1828   -1.5318   -4.8615 H         1 UNK         0.3093 
     90 H90        22.9469   -0.1357   -4.1932 H         1 UNK         0.0818 
     91 H91        23.0860   -2.0145   -2.5401 H         1 UNK         0.0819 
     92 H92        22.6811   -2.5878   -4.1498 H         1 UNK         0.0819 
     93 H93        24.3109   -2.8033   -3.5355 H         1 UNK         0.0819 
     94 H94        25.4760   -0.6930   -2.7901 H         1 UNK         0.3041 
     95 H95        26.5007    2.6954   -2.7500 H         1 UNK         0.0784 
     96 H96        24.7909    2.7137   -0.9283 H         1 UNK         0.0793 
     97 H97        25.2825    1.1021   -0.4266 H         1 UNK         0.0793 
     98 H98        26.4018    2.4582   -0.2800 H         1 UNK         0.0793 
     99 H99        27.4516    0.3536   -1.3920 H         1 UNK         0.3024 
    100 H100       29.4994   -0.8718   -4.0224 H         1 UNK         0.1171 
    101 H101       30.2560    0.7029   -1.4928 H         1 UNK         0.0786 
    102 H102       31.2969   -0.4475   -2.3179 H         1 UNK         0.0786 
    103 H103       30.8192    1.0455   -3.1180 H         1 UNK         0.0786 
    104 H104       29.4979   -1.7638   -1.4193 H         1 UNK         0.2977 
    105 H105       26.2348    0.9153   -6.0988 H         1 UNK         0.3127 
    106 H106       28.1747    2.2619   -7.3225 H         1 UNK         0.0770 
    107 H107       25.4335    3.3692   -6.5165 H         1 UNK         0.0814 
    108 H108       26.8702    4.3515   -6.7737 H         1 UNK         0.0814 
    109 H109       26.8374    3.1830   -5.4690 H         1 UNK         0.0814 
    110 H110       25.1300    1.5963   -8.9519 H         1 UNK         0.2983 
    111 H111       25.4431    3.4627  -11.1275 H         1 UNK         0.0947 
    112 H112       23.6269    2.0957  -12.1681 H         1 UNK         0.0806 
    113 H113       23.2343    2.5034  -10.5066 H         1 UNK         0.0806 
    114 H114       23.7980    0.8805  -10.9092 H         1 UNK         0.0806 
    115 H115       26.8632    0.3384  -10.4424 H         1 UNK         0.3000 
    116 H116       27.8914    0.0436  -13.2365 H         1 UNK         0.0850 
    117 H117       27.6756   -2.0063  -10.9636 H         1 UNK         0.0810 
    118 H118       28.3637   -2.3029  -12.5546 H         1 UNK         0.0810 
    119 H119       26.6532   -1.9363  -12.3967 H         1 UNK         0.0810 
    120 H120       28.8404   -0.0977   -9.7374 H         1 UNK         0.3040 
    121 H121       31.3627    1.2215  -10.2617 H         1 UNK         0.0766 
    122 H122       31.3821   -1.7409   -9.4426 H         1 UNK         0.0812 
    123 H123       32.7770   -0.6725   -9.3679 H         1 UNK         0.0812 
    124 H124       32.0633   -1.0685  -10.9222 H         1 UNK         0.0812 
    125 H125       31.5192    2.5600   -8.5791 H         1 UNK         0.3205 
    126 H126       30.3370    1.8863   -5.9281 H         1 UNK         0.0754 
    127 H127       30.7059    4.3035   -5.4748 H         1 UNK         0.0769 
    128 H128       29.7029    4.0821   -6.8983 H         1 UNK         0.0769 
    129 H129       31.3963    4.5280   -7.0767 H         1 UNK         0.0769 
    130 H130       31.8758    0.3443   -5.2892 H         1 UNK         0.2981 
    131 H131       34.6993    0.7237   -5.2735 H         1 UNK         0.0541 
    132 H132       35.6447    2.1322   -2.1409 H         1 UNK         0.3459 
    133 H133       36.1650    1.0816   -3.4327 H         1 UNK         0.3459 
    134 H134       34.4594   -1.1339   -3.3503 H         1 UNK         0.0612 
    135 H135       32.7936   -1.1854   -3.8443 H         1 UNK         0.0612 
    136 H136       32.9913   -2.6978   -7.4029 H         1 UNK         0.0624 
    137 H137       32.2132   -1.3983   -6.5474 H         1 UNK         0.0624 
@<TRIPOS>BOND
     1    1    2 1    
     2    1   72 1    
     3    1   73 1    
     4    1   74 1    
     5    2    3 2    
     6    2    4 am   BACKBONE|DICT|INTERRES
     7    4    5 1    
     8    4   75 1    
     9    5    6 1    
    10    5   35 1    
    11    5   76 1    
    12    6    7 1    
    13    6   77 1    
    14    6   78 1    
    15    7    8 1    
    16    8    9 1    
    17    8   79 1    
    18    8   80 1    
    19    9   10 ar   
    20    9   14 ar   
    21   10   11 ar   
    22   10   81 1    
    23   11   12 ar   
    24   11   71 1    
    25   12   13 ar   
    26   12   82 1    
    27   13   14 ar   
    28   13   15 1    
    29   14   83 1    
    30   15   16 1    
    31   15   84 1    
    32   15   85 1    
    33   16   17 1    
    34   17   18 1    
    35   17   86 1    
    36   17   87 1    
    37   18   19 1    
    38   18   37 1    
    39   18   88 1    
    40   19   20 am   BACKBONE|DICT|INTERRES
    41   19   89 1    
    42   20   21 2    
    43   20   22 1    
    44   22   23 1    
    45   22   24 1    
    46   22   90 1    
    47   23   91 1    
    48   23   92 1    
    49   23   93 1    
    50   24   25 am   BACKBONE|DICT|INTERRES
    51   24   94 1    
    52   25   26 2    
    53   25   27 1    
    54   27   28 1    
    55   27   29 1    
    56   27   95 1    
    57   28   96 1    
    58   28   97 1    
    59   28   98 1    
    60   29   30 am   BACKBONE|DICT|INTERRES
    61   29   99 1    
    62   30   31 2    
    63   30   32 1    
    64   32   33 1    
    65   32   34 1    
    66   32  100 1    
    67   33  101 1    
    68   33  102 1    
    69   33  103 1    
    70   34   35 am   BACKBONE|DICT|INTERRES
    71   34  104 1    
    72   35   36 2    
    73   37   38 2    
    74   37   39 am   BACKBONE|DICT|INTERRES
    75   39   40 1    
    76   39  105 1    
    77   40   41 1    
    78   40   42 1    
    79   40  106 1    
    80   41  107 1    
    81   41  108 1    
    82   41  109 1    
    83   42   43 2    
    84   42   44 am   BACKBONE|DICT|INTERRES
    85   44   45 1    
    86   44  110 1    
    87   45   46 1    
    88   45   47 1    
    89   45  111 1    
    90   46  112 1    
    91   46  113 1    
    92   46  114 1    
    93   47   48 2    
    94   47   49 am   BACKBONE|DICT|INTERRES
    95   49   50 1    
    96   49  115 1    
    97   50   51 1    
    98   50   52 1    
    99   50  116 1    
   100   51  117 1    
   101   51  118 1    
   102   51  119 1    
   103   52   53 2    
   104   52   54 am   BACKBONE|DICT|INTERRES
   105   54   55 1    
   106   54  120 1    
   107   55   56 1    
   108   55   57 1    
   109   55  121 1    
   110   56  122 1    
   111   56  123 1    
   112   56  124 1    
   113   57   58 2    
   114   57   59 am   BACKBONE|DICT|INTERRES
   115   59   60 1    
   116   59  125 1    
   117   60   61 1    
   118   60   62 1    
   119   60  126 1    
   120   61  127 1    
   121   61  128 1    
   122   61  129 1    
   123   62   63 2    
   124   62   64 am   BACKBONE|DICT|INTERRES
   125   64   65 1    
   126   64  130 1    
   127   65   66 1    
   128   65   69 1    
   129   65  131 1    
   130   66   67 am   BACKBONE|DICT|INTERRES
   131   66   68 2    
   132   67  132 1    
   133   67  133 1    
   134   69   70 1    
   135   69  134 1    
   136   69  135 1    
   137   70   71 1    
   138   71  136 1    
   139   71  137 1    
@<TRIPOS>SUBSTRUCTURE
     1 UNK         1 GROUP             0       ****    0 ROOT    
