@<TRIPOS>MOLECULE
3R137
137   139    1
SMALL
USER_CHARGES


@<TRIPOS>ATOM
      1 CA         25.4302   -6.6406   -5.0117 C.3       0 UNK        -0.2020 
      2 C          25.3697   -5.8164   -3.7350 C.2       0 UNK         0.4855 
      3 O          24.3134   -5.2793   -3.3989 O.2       0 UNK        -0.5197 
      4 N          26.5012   -5.7141   -3.0271 N.am      1 UNK        -0.4892 
      5 CA         26.7029   -4.9564   -1.7864 C.3       1 UNK         0.0835 
      6 C6         28.1328   -5.1543   -1.2063 C.3       12 UNK        -0.0855 
      7 S7         29.4764   -5.2285   -2.4514 S.3       12 UNK        -0.2931 
      8 C8         30.8681   -4.4597   -1.5672 C.3       12 UNK         0.0378 
      9 C9         31.0257   -2.9918   -1.9332 C.ar      12 UNK        -0.0802 
     10 C10        31.9206   -2.6119   -2.9373 C.ar      12 UNK        -0.0944 
     11 C11        32.1004   -1.2624   -3.2547 C.ar      12 UNK        -0.0787 
     12 C12        31.3600   -0.2888   -2.5769 C.ar      12 UNK        -0.0862 
     13 C13        30.4543   -0.6568   -1.5781 C.ar      12 UNK        -0.0733 
     14 C14        30.3003   -2.0098   -1.2546 C.ar      12 UNK        -0.0832 
     15 C15        29.6656    0.4024   -0.8216 C.3       12 UNK         0.0240 
     16 S16        27.8763    0.1020   -0.9350 S.3       12 UNK        -0.2522 
     17 C17        27.2985    1.4193   -2.0503 C.3       12 UNK        -0.0967 
     18 CA         27.7727    1.3377   -3.5279 C.3       5 UNK         0.0660 
     19 N          27.6931   -0.0050   -4.1192 N.am      5 UNK        -0.4015 
     20 C          28.0828   -0.3131   -5.3691 C.2       4 UNK         0.4946 
     21 O          28.6046    0.4839   -6.1497 O.2       4 UNK        -0.5353 
     22 CA         27.7649   -1.7285   -5.8695 C.3       4 UNK         0.0277 
     23 CB         28.8309   -2.7339   -5.4037 C.3       4 UNK        -0.1981 
     24 N          26.4253   -2.1491   -5.4512 N.am      4 UNK        -0.4209 
     25 C          25.2945   -1.6431   -5.9714 C.2       3 UNK         0.4942 
     26 O          25.2761   -0.8360   -6.8988 O.2       3 UNK        -0.5208 
     27 CA         23.9576   -2.0574   -5.3330 C.3       3 UNK         0.0250 
     28 CB         23.3785   -3.2963   -6.0317 C.3       3 UNK        -0.1990 
     29 N          24.0649   -2.2935   -3.8928 N.am      3 UNK        -0.4232 
     30 C          24.3231   -1.3253   -2.9998 C.2       2 UNK         0.4993 
     31 O          24.4275   -0.1352   -3.2984 O.2       2 UNK        -0.5286 
     32 CA         24.5593   -1.7545   -1.5408 C.3       2 UNK         0.0209 
     33 CB         23.2433   -1.7064   -0.7490 C.3       2 UNK        -0.1931 
     34 N          25.1658   -3.0834   -1.3997 N.am      2 UNK        -0.4546 
     35 C          26.3235   -3.4708   -1.9566 C.2       1 UNK         0.5154 
     36 O          27.0303   -2.7281   -2.6379 O.2       1 UNK        -0.5181 
     37 C          26.9878    2.3739   -4.3604 C.2       5 UNK         0.5014 
     38 O          27.5107    3.4535   -4.6400 O.2       5 UNK        -0.5248 
     39 N          25.7473    2.0190   -4.7306 N.am      6 UNK        -0.4434 
     40 CA         24.8465    2.8381   -5.5414 C.3       6 UNK         0.0363 
     41 CB         23.4391    2.2201   -5.5292 C.3       6 UNK        -0.1936 
     42 C          25.3391    3.0335   -6.9842 C.2       6 UNK         0.5081 
     43 O          25.2631    4.1513   -7.4955 O.2       6 UNK        -0.5248 
     44 N          25.8231    1.9552   -7.6182 N.am      7 UNK        -0.4718 
     45 CA         26.3491    1.9766   -8.9852 C.3       7 UNK         0.0273 
     46 CB         26.5165    0.5400   -9.5048 C.3       7 UNK        -0.1935 
     47 C          27.6729    2.7440   -9.1090 C.2       7 UNK         0.5018 
     48 O          27.8570    3.4596  -10.0949 O.2       7 UNK        -0.5186 
     49 N          28.5744    2.5599   -8.1317 N.am      8 UNK        -0.4240 
     50 CA         29.9246    3.1276   -8.0017 C.3       8 UNK         0.0235 
     51 CB         29.8915    4.6651   -7.9114 C.3       8 UNK        -0.2000 
     52 C          30.9171    2.6457   -9.0750 C.2       8 UNK         0.4941 
     53 O          32.0040    2.1877   -8.7272 O.2       8 UNK        -0.5273 
     54 N          30.5232    2.7042  -10.3543 N.am      9 UNK        -0.4262 
     55 CA         31.2800    2.2051  -11.5086 C.3       9 UNK         0.0264 
     56 CB         30.5443    2.5897  -12.8017 C.3       9 UNK        -0.1955 
     57 C          31.5333    0.6871  -11.4624 C.2       9 UNK         0.5031 
     58 O          32.5458    0.2245  -11.9899 O.2       9 UNK        -0.5390 
     59 N          30.6398   -0.0503  -10.7858 N.am      10 UNK        -0.4204 
     60 CA         30.7544   -1.4802  -10.4847 C.3       10 UNK         0.0237 
     61 CB         29.4780   -1.9392   -9.7604 C.3       10 UNK        -0.1985 
     62 C          31.9968   -1.8461   -9.6493 C.2       10 UNK         0.4970 
     63 O          32.4533   -2.9871   -9.7280 O.2       10 UNK        -0.4914 
     64 N          32.5228   -0.8832   -8.8813 N.am      11 UNK        -0.4285 
     65 CA         33.7601   -1.0129   -8.1011 C.3       11 UNK         0.1007 
     66 C          35.0581   -0.8825   -8.9519 C.2       11 UNK         0.5703 
     67 N          34.9951   -0.5362  -10.2340 N.am      11 UNK        -0.7361 
     68 O          36.1502   -1.1146   -8.4386 O.2       11 UNK        -0.4986 
     69 C69        33.7738   -0.0338   -6.8983 C.3       12 UNK        -0.0947 
     70 S70        32.3202   -0.2437   -5.8136 S.3       12 UNK        -0.2240 
     71 C71        33.1208   -0.8546   -4.3042 C.3       12 UNK         0.0194 
     72 H72        24.4916   -7.1729   -5.1640 H         1 UNK         0.0906 
     73 H73        25.6015   -5.9949   -5.8721 H         1 UNK         0.0906 
     74 H74        26.2314   -7.3785   -4.9739 H         1 UNK         0.0906 
     75 H75        27.3465   -6.1394   -3.3837 H         1 UNK         0.3140 
     76 H76        26.0098   -5.3794   -1.0560 H         1 UNK         0.1085 
     77 H77        28.1627   -6.0997   -0.6623 H         1 UNK         0.0836 
     78 H78        28.3551   -4.3901   -0.4594 H         1 UNK         0.0836 
     79 H79        31.7796   -5.0029   -1.8214 H         1 UNK         0.0731 
     80 H80        30.7460   -4.5740   -0.4890 H         1 UNK         0.0731 
     81 H81        32.4892   -3.3681   -3.4613 H         1 UNK         0.1312 
     82 H82        31.4980    0.7545   -2.8258 H         1 UNK         0.1406 
     83 H83        29.6057   -2.2965   -0.4774 H         1 UNK         0.1631 
     84 H84        29.9017    1.4056   -1.1795 H         1 UNK         0.0717 
     85 H85        29.9592    0.3737    0.2285 H         1 UNK         0.0717 
     86 H86        26.2084    1.3970   -1.9951 H         1 UNK         0.0934 
     87 H87        27.5897    2.3794   -1.6195 H         1 UNK         0.0934 
     88 H88        28.8262    1.6228   -3.5597 H         1 UNK         0.0739 
     89 H89        27.3232   -0.7412   -3.5280 H         1 UNK         0.3093 
     90 H90        27.7820   -1.7100   -6.9608 H         1 UNK         0.0818 
     91 H91        29.8050   -2.4827   -5.8260 H         1 UNK         0.0819 
     92 H92        28.9500   -2.7363   -4.3201 H         1 UNK         0.0819 
     93 H93        28.5908   -3.7493   -5.7180 H         1 UNK         0.0819 
     94 H94        26.3759   -2.7247   -4.6187 H         1 UNK         0.3041 
     95 H95        23.2555   -1.2341   -5.4804 H         1 UNK         0.0784 
     96 H96        23.2173   -3.1025   -7.0930 H         1 UNK         0.0793 
     97 H97        24.0466   -4.1528   -5.9572 H         1 UNK         0.0793 
     98 H98        22.4172   -3.5818   -5.6041 H         1 UNK         0.0793 
     99 H99        24.0212   -3.2582   -3.5768 H         1 UNK         0.3024 
    100 H100       25.2464   -1.0310   -1.1010 H         1 UNK         0.1171 
    101 H101       23.4089   -1.9067    0.3098 H         1 UNK         0.0786 
    102 H102       22.7810   -0.7207   -0.8213 H         1 UNK         0.0786 
    103 H103       22.5208   -2.4338   -1.1214 H         1 UNK         0.0786 
    104 H104       24.6197   -3.7705   -0.8997 H         1 UNK         0.2977 
    105 H105       25.3722    1.1374   -4.3869 H         1 UNK         0.3127 
    106 H106       24.7875    3.8240   -5.0753 H         1 UNK         0.0770 
    107 H107       23.4335    1.2219   -5.9681 H         1 UNK         0.0814 
    108 H108       22.7391    2.8320   -6.0997 H         1 UNK         0.0814 
    109 H109       23.0491    2.1407   -4.5143 H         1 UNK         0.0814 
    110 H110       25.7931    1.0507   -7.1552 H         1 UNK         0.2983 
    111 H111       25.6176    2.4824   -9.6194 H         1 UNK         0.0947 
    112 H112       26.9217    0.5308  -10.5176 H         1 UNK         0.0806 
    113 H113       25.5600    0.0181   -9.5354 H         1 UNK         0.0806 
    114 H114       27.1904   -0.0395   -8.8732 H         1 UNK         0.0806 
    115 H115       28.3401    1.8927   -7.3978 H         1 UNK         0.3000 
    116 H116       30.2984    2.7541   -7.0463 H         1 UNK         0.0850 
    117 H117       30.8879    5.0635   -7.7159 H         1 UNK         0.0810 
    118 H118       29.2440    4.9964   -7.0992 H         1 UNK         0.0810 
    119 H119       29.5342    5.1247   -8.8333 H         1 UNK         0.0810 
    120 H120       29.5964    3.0885  -10.5310 H         1 UNK         0.3040 
    121 H121       32.2539    2.6989  -11.5042 H         1 UNK         0.0766 
    122 H122       30.4362    3.6709  -12.8896 H         1 UNK         0.0812 
    123 H123       29.5478    2.1483  -12.8464 H         1 UNK         0.0812 
    124 H124       31.0935    2.2477  -13.6802 H         1 UNK         0.0812 
    125 H125       29.8465    0.4313  -10.3906 H         1 UNK         0.3205 
    126 H126       30.8290   -2.0140  -11.4342 H         1 UNK         0.0754 
    127 H127       29.5156   -3.0070   -9.5392 H         1 UNK         0.0769 
    128 H128       28.5897   -1.7683  -10.3689 H         1 UNK         0.0769 
    129 H129       29.3466   -1.4156   -8.8125 H         1 UNK         0.0769 
    130 H130       32.1086    0.0410   -8.8786 H         1 UNK         0.2981 
    131 H131       33.7831   -2.0232   -7.6882 H         1 UNK         0.0541 
    132 H132       34.1081   -0.3443  -10.6835 H         1 UNK         0.3459 
    133 H133       35.8490   -0.4645  -10.7637 H         1 UNK         0.3459 
    134 H134       33.7946    0.9999   -7.2450 H         1 UNK         0.0612 
    135 H135       34.6830   -0.1665   -6.3092 H         1 UNK         0.0612 
    136 H136       33.7663   -1.6971   -4.5581 H         1 UNK         0.0624 
    137 H137       33.7686   -0.0758   -3.8992 H         1 UNK         0.0624 
@<TRIPOS>BOND
     1    1    2 1    
     2    1   72 1    
     3    1   73 1    
     4    1   74 1    
     5    2    3 2    
     6    2    4 am   BACKBONE|DICT|INTERRES
     7    4    5 1    
     8    4   75 1    
     9    5    6 1    
    10    5   35 1    
    11    5   76 1    
    12    6    7 1    
    13    6   77 1    
    14    6   78 1    
    15    7    8 1    
    16    8    9 1    
    17    8   79 1    
    18    8   80 1    
    19    9   10 ar   
    20    9   14 ar   
    21   10   11 ar   
    22   10   81 1    
    23   11   12 ar   
    24   11   71 1    
    25   12   13 ar   
    26   12   82 1    
    27   13   14 ar   
    28   13   15 1    
    29   14   83 1    
    30   15   16 1    
    31   15   84 1    
    32   15   85 1    
    33   16   17 1    
    34   17   18 1    
    35   17   86 1    
    36   17   87 1    
    37   18   19 1    
    38   18   37 1    
    39   18   88 1    
    40   19   20 am   BACKBONE|DICT|INTERRES
    41   19   89 1    
    42   20   21 2    
    43   20   22 1    
    44   22   23 1    
    45   22   24 1    
    46   22   90 1    
    47   23   91 1    
    48   23   92 1    
    49   23   93 1    
    50   24   25 am   BACKBONE|DICT|INTERRES
    51   24   94 1    
    52   25   26 2    
    53   25   27 1    
    54   27   28 1    
    55   27   29 1    
    56   27   95 1    
    57   28   96 1    
    58   28   97 1    
    59   28   98 1    
    60   29   30 am   BACKBONE|DICT|INTERRES
    61   29   99 1    
    62   30   31 2    
    63   30   32 1    
    64   32   33 1    
    65   32   34 1    
    66   32  100 1    
    67   33  101 1    
    68   33  102 1    
    69   33  103 1    
    70   34   35 am   BACKBONE|DICT|INTERRES
    71   34  104 1    
    72   35   36 2    
    73   37   38 2    
    74   37   39 am   BACKBONE|DICT|INTERRES
    75   39   40 1    
    76   39  105 1    
    77   40   41 1    
    78   40   42 1    
    79   40  106 1    
    80   41  107 1    
    81   41  108 1    
    82   41  109 1    
    83   42   43 2    
    84   42   44 am   BACKBONE|DICT|INTERRES
    85   44   45 1    
    86   44  110 1    
    87   45   46 1    
    88   45   47 1    
    89   45  111 1    
    90   46  112 1    
    91   46  113 1    
    92   46  114 1    
    93   47   48 2    
    94   47   49 am   BACKBONE|DICT|INTERRES
    95   49   50 1    
    96   49  115 1    
    97   50   51 1    
    98   50   52 1    
    99   50  116 1    
   100   51  117 1    
   101   51  118 1    
   102   51  119 1    
   103   52   53 2    
   104   52   54 am   BACKBONE|DICT|INTERRES
   105   54   55 1    
   106   54  120 1    
   107   55   56 1    
   108   55   57 1    
   109   55  121 1    
   110   56  122 1    
   111   56  123 1    
   112   56  124 1    
   113   57   58 2    
   114   57   59 am   BACKBONE|DICT|INTERRES
   115   59   60 1    
   116   59  125 1    
   117   60   61 1    
   118   60   62 1    
   119   60  126 1    
   120   61  127 1    
   121   61  128 1    
   122   61  129 1    
   123   62   63 2    
   124   62   64 am   BACKBONE|DICT|INTERRES
   125   64   65 1    
   126   64  130 1    
   127   65   66 1    
   128   65   69 1    
   129   65  131 1    
   130   66   67 am   BACKBONE|DICT|INTERRES
   131   66   68 2    
   132   67  132 1    
   133   67  133 1    
   134   69   70 1    
   135   69  134 1    
   136   69  135 1    
   137   70   71 1    
   138   71  136 1    
   139   71  137 1    
@<TRIPOS>SUBSTRUCTURE
     1 UNK         1 GROUP             0       ****    0 ROOT    
