@<TRIPOS>MOLECULE
3R137
137   139    1
SMALL
USER_CHARGES


@<TRIPOS>ATOM
      1 CA         23.3938   -6.1247   -3.1670 C.3       0 UNK        -0.2020 
      2 C          24.4882   -5.7766   -2.1690 C.2       0 UNK         0.4855 
      3 O          24.6875   -6.5049   -1.1965 O.2       0 UNK        -0.5197 
      4 N          25.1963   -4.6684   -2.4013 N.am      1 UNK        -0.4892 
      5 CA         26.2683   -4.1488   -1.5580 C.3       1 UNK         0.0835 
      6 C6         27.6042   -4.8981   -1.8043 C.3       12 UNK        -0.0855 
      7 S7         28.9631   -4.3879   -0.6928 S.3       12 UNK        -0.2931 
      8 C8         30.4390   -4.9790   -1.5910 C.3       12 UNK         0.0378 
      9 C9         30.6723   -4.2035   -2.8806 C.ar      12 UNK        -0.0802 
     10 C10        31.2675   -2.9373   -2.8474 C.ar      12 UNK        -0.0944 
     11 C11        31.4354   -2.1930   -4.0207 C.ar      12 UNK        -0.0787 
     12 C12        30.9715   -2.7279   -5.2282 C.ar      12 UNK        -0.0862 
     13 C13        30.3904   -3.9968   -5.2804 C.ar      12 UNK        -0.0733 
     14 C14        30.2716   -4.7438   -4.1062 C.ar      12 UNK        -0.0832 
     15 C15        29.8585   -4.5311   -6.6054 C.3       12 UNK         0.0240 
     16 S16        28.0908   -4.9929   -6.5713 S.3       12 UNK        -0.2522 
     17 C17        27.2979   -3.6718   -5.5925 C.3       12 UNK        -0.0967 
     18 CA         26.7844   -2.4680   -6.4189 C.3       5 UNK         0.0660 
     19 N          25.6239   -1.8543   -5.7691 N.am      5 UNK        -0.4015 
     20 C          24.6896   -1.1401   -6.4073 C.2       4 UNK         0.4946 
     21 O          24.6787   -0.9546   -7.6250 O.2       4 UNK        -0.5353 
     22 CA         23.5904   -0.5150   -5.5329 C.3       4 UNK         0.0277 
     23 CB         22.6569   -1.5976   -4.9644 C.3       4 UNK        -0.1981 
     24 N          24.1040    0.3124   -4.4368 N.am      4 UNK        -0.4209 
     25 C          24.8613    1.4088   -4.5727 C.2       3 UNK         0.4942 
     26 O          25.3161    1.8000   -5.6461 O.2       3 UNK        -0.5208 
     27 CA         25.1902    2.1999   -3.2943 C.3       3 UNK         0.0250 
     28 CB         23.9320    2.8359   -2.6683 C.3       3 UNK        -0.1990 
     29 N          25.9667    1.4208   -2.3221 N.am      3 UNK        -0.4232 
     30 C          25.5821    0.3404   -1.6301 C.2       2 UNK         0.4993 
     31 O          24.4285   -0.0980   -1.6075 O.2       2 UNK        -0.5286 
     32 CA         26.6953   -0.3758   -0.8439 C.3       2 UNK         0.0209 
     33 CB         26.7629    0.1616    0.5948 C.3       2 UNK        -0.1931 
     34 N          26.5473   -1.8347   -0.8025 N.am      2 UNK        -0.4546 
     35 C          26.3587   -2.6426   -1.8559 C.2       1 UNK         0.5154 
     36 O          26.2529   -2.2522   -3.0247 O.2       1 UNK        -0.5181 
     37 C          27.8899   -1.4167   -6.6392 C.2       5 UNK         0.5014 
     38 O          28.5917   -1.4669   -7.6507 O.2       5 UNK        -0.5248 
     39 N          28.0097   -0.4675   -5.6975 N.am      6 UNK        -0.4434 
     40 CA         29.0066    0.6032   -5.7019 C.3       6 UNK         0.0363 
     41 CB         28.9052    1.4192   -4.4054 C.3       6 UNK        -0.1936 
     42 C          28.9191    1.5206   -6.9279 C.2       6 UNK         0.5081 
     43 O          29.9559    1.8356   -7.5106 O.2       6 UNK        -0.5248 
     44 N          27.6965    1.9057   -7.3182 N.am      7 UNK        -0.4718 
     45 CA         27.4355    2.7053   -8.5173 C.3       7 UNK         0.0273 
     46 CB         25.9996    3.2500   -8.4679 C.3       7 UNK        -0.1935 
     47 C          27.6673    1.9266   -9.8227 C.2       7 UNK         0.5018 
     48 O          28.0548    2.5354  -10.8199 O.2       7 UNK        -0.5186 
     49 N          27.4348    0.6061   -9.7969 N.am      8 UNK        -0.4240 
     50 CA         27.6480   -0.2916  -10.9336 C.3       8 UNK         0.0235 
     51 CB         26.9024   -1.6170  -10.7032 C.3       8 UNK        -0.2000 
     52 C          29.1415   -0.5330  -11.2022 C.2       8 UNK         0.4941 
     53 O          29.5690   -0.4503  -12.3542 O.2       8 UNK        -0.5273 
     54 N          29.9090   -0.8074  -10.1380 N.am      9 UNK        -0.4262 
     55 CA         31.3615   -0.9994  -10.2001 C.3       9 UNK         0.0264 
     56 CB         31.8184   -1.7681   -8.9546 C.3       9 UNK        -0.1955 
     57 C          32.1533    0.3145  -10.3164 C.2       9 UNK         0.5031 
     58 O          33.3030    0.2739  -10.7568 O.2       9 UNK        -0.5390 
     59 N          31.5405    1.4330   -9.9017 N.am      10 UNK        -0.4204 
     60 CA         32.1162    2.7734   -9.7605 C.3       10 UNK         0.0237 
     61 CB         32.5963    3.3370  -11.1158 C.3       10 UNK        -0.1985 
     62 C          33.1910    2.8051   -8.6579 C.2       10 UNK         0.4970 
     63 O          34.3318    3.1959   -8.9136 O.2       10 UNK        -0.4914 
     64 N          32.7975    2.3859   -7.4465 N.am      11 UNK        -0.4285 
     65 CA         33.6438    2.4013   -6.2382 C.3       11 UNK         0.1007 
     66 C          34.0134    3.8254   -5.7257 C.2       11 UNK         0.5703 
     67 N          33.3047    4.8796   -6.1144 N.am      11 UNK        -0.7361 
     68 O          34.9650    3.9744   -4.9628 O.2       11 UNK        -0.4986 
     69 C69        33.0373    1.5624   -5.0812 C.3       12 UNK        -0.0947 
     70 S70        32.8399   -0.2024   -5.4825 S.3       12 UNK        -0.2240 
     71 C71        32.0605   -0.7981   -3.9374 C.3       12 UNK         0.0194 
     72 H72        23.5837   -7.1043   -3.6049 H         1 UNK         0.0906 
     73 H73        22.4262   -6.1568   -2.6669 H         1 UNK         0.0906 
     74 H74        23.3327   -5.3980   -3.9771 H         1 UNK         0.0906 
     75 H75        24.9781   -4.0698   -3.1870 H         1 UNK         0.3140 
     76 H76        25.9757   -4.2775   -0.5133 H         1 UNK         0.1085 
     77 H77        27.4580   -5.9705   -1.6667 H         1 UNK         0.0836 
     78 H78        27.9057   -4.7715   -2.8424 H         1 UNK         0.0836 
     79 H79        31.3108   -4.8755   -0.9433 H         1 UNK         0.0731 
     80 H80        30.3360   -6.0463   -1.7936 H         1 UNK         0.0731 
     81 H81        31.5818   -2.5228   -1.8991 H         1 UNK         0.1312 
     82 H82        31.0410   -2.1504   -6.1355 H         1 UNK         0.1406 
     83 H83        29.8132   -5.7229   -4.1424 H         1 UNK         0.1631 
     84 H84        30.4459   -5.4011   -6.9010 H         1 UNK         0.0717 
     85 H85        29.9891   -3.7929   -7.3954 H         1 UNK         0.0717 
     86 H86        26.4521   -4.1627   -5.1093 H         1 UNK         0.0934 
     87 H87        27.9317   -3.3466   -4.7677 H         1 UNK         0.0934 
     88 H88        26.4703   -2.8305   -7.4003 H         1 UNK         0.0739 
     89 H89        25.5927   -1.9296   -4.7548 H         1 UNK         0.3093 
     90 H90        22.9972    0.1365   -6.1780 H         1 UNK         0.0818 
     91 H91        21.7962   -1.1529   -4.4645 H         1 UNK         0.0819 
     92 H92        22.2718   -2.2397   -5.7579 H         1 UNK         0.0819 
     93 H93        23.1664   -2.2372   -4.2426 H         1 UNK         0.0819 
     94 H94        23.8606    0.0382   -3.4886 H         1 UNK         0.3041 
     95 H95        25.8393    3.0230   -3.5978 H         1 UNK         0.0784 
     96 H96        23.4302    3.4858   -3.3864 H         1 UNK         0.0793 
     97 H97        23.2034    2.0922   -2.3455 H         1 UNK         0.0793 
     98 H98        24.1886    3.4476   -1.8033 H         1 UNK         0.0793 
     99 H99        26.9308    1.7094   -2.2329 H         1 UNK         0.3024 
    100 H100       27.6490   -0.1751   -1.3367 H         1 UNK         0.1171 
    101 H101       25.8462   -0.0522    1.1463 H         1 UNK         0.0786 
    102 H102       26.9036    1.2435    0.6051 H         1 UNK         0.0786 
    103 H103       27.5964   -0.2756    1.1450 H         1 UNK         0.0786 
    104 H104       26.6162   -2.2568    0.1119 H         1 UNK         0.2977 
    105 H105       27.3869   -0.5073   -4.9048 H         1 UNK         0.3127 
    106 H106       29.9833    0.1229   -5.7324 H         1 UNK         0.0770 
    107 H107       28.9880    0.7836   -3.5240 H         1 UNK         0.0814 
    108 H108       27.9637    1.9633   -4.3493 H         1 UNK         0.0814 
    109 H109       29.7043    2.1591   -4.3490 H         1 UNK         0.0814 
    110 H110       26.8879    1.6533   -6.7544 H         1 UNK         0.2983 
    111 H111       28.1229    3.5544   -8.5158 H         1 UNK         0.0947 
    112 H112       25.7830    3.8658   -9.3419 H         1 UNK         0.0806 
    113 H113       25.8424    3.8715   -7.5861 H         1 UNK         0.0806 
    114 H114       25.2642    2.4444   -8.4430 H         1 UNK         0.0806 
    115 H115       27.1396    0.1852   -8.9268 H         1 UNK         0.3000 
    116 H116       27.2225    0.1811  -11.8217 H         1 UNK         0.0850 
    117 H117       26.9976   -2.2708  -11.5711 H         1 UNK         0.0810 
    118 H118       25.8378   -1.4498  -10.5380 H         1 UNK         0.0810 
    119 H119       27.2906   -2.1629   -9.8434 H         1 UNK         0.0810 
    120 H120       29.4641   -0.9190   -9.2280 H         1 UNK         0.3040 
    121 H121       31.5965   -1.6042  -11.0786 H         1 UNK         0.0766 
    122 H122       32.8974   -1.9291   -8.9617 H         1 UNK         0.0812 
    123 H123       31.3458   -2.7472   -8.8999 H         1 UNK         0.0812 
    124 H124       31.5768   -1.2136   -8.0490 H         1 UNK         0.0812 
    125 H125       30.6259    1.3256   -9.4792 H         1 UNK         0.3205 
    126 H126       31.3040    3.4153   -9.4154 H         1 UNK         0.0754 
    127 H127       32.9061    4.3777  -11.0139 H         1 UNK         0.0769 
    128 H128       31.8004    3.3066  -11.8601 H         1 UNK         0.0769 
    129 H129       33.4485    2.7852  -11.5130 H         1 UNK         0.0769 
    130 H130       31.8321    2.0907   -7.3267 H         1 UNK         0.2981 
    131 H131       34.5909    1.9338   -6.5143 H         1 UNK         0.0541 
    132 H132       32.5188    4.7682   -6.7339 H         1 UNK         0.3459 
    133 H133       33.5578    5.7951   -5.7779 H         1 UNK         0.3459 
    134 H134       33.6687    1.6203   -4.1922 H         1 UNK         0.0612 
    135 H135       32.0656    1.9673   -4.7953 H         1 UNK         0.0612 
    136 H136       32.8181   -0.7819   -3.1524 H         1 UNK         0.0624 
    137 H137       31.2852   -0.0966   -3.6315 H         1 UNK         0.0624 
@<TRIPOS>BOND
     1    1    2 1    
     2    1   72 1    
     3    1   73 1    
     4    1   74 1    
     5    2    3 2    
     6    2    4 am   BACKBONE|DICT|INTERRES
     7    4    5 1    
     8    4   75 1    
     9    5    6 1    
    10    5   35 1    
    11    5   76 1    
    12    6    7 1    
    13    6   77 1    
    14    6   78 1    
    15    7    8 1    
    16    8    9 1    
    17    8   79 1    
    18    8   80 1    
    19    9   10 ar   
    20    9   14 ar   
    21   10   11 ar   
    22   10   81 1    
    23   11   12 ar   
    24   11   71 1    
    25   12   13 ar   
    26   12   82 1    
    27   13   14 ar   
    28   13   15 1    
    29   14   83 1    
    30   15   16 1    
    31   15   84 1    
    32   15   85 1    
    33   16   17 1    
    34   17   18 1    
    35   17   86 1    
    36   17   87 1    
    37   18   19 1    
    38   18   37 1    
    39   18   88 1    
    40   19   20 am   BACKBONE|DICT|INTERRES
    41   19   89 1    
    42   20   21 2    
    43   20   22 1    
    44   22   23 1    
    45   22   24 1    
    46   22   90 1    
    47   23   91 1    
    48   23   92 1    
    49   23   93 1    
    50   24   25 am   BACKBONE|DICT|INTERRES
    51   24   94 1    
    52   25   26 2    
    53   25   27 1    
    54   27   28 1    
    55   27   29 1    
    56   27   95 1    
    57   28   96 1    
    58   28   97 1    
    59   28   98 1    
    60   29   30 am   BACKBONE|DICT|INTERRES
    61   29   99 1    
    62   30   31 2    
    63   30   32 1    
    64   32   33 1    
    65   32   34 1    
    66   32  100 1    
    67   33  101 1    
    68   33  102 1    
    69   33  103 1    
    70   34   35 am   BACKBONE|DICT|INTERRES
    71   34  104 1    
    72   35   36 2    
    73   37   38 2    
    74   37   39 am   BACKBONE|DICT|INTERRES
    75   39   40 1    
    76   39  105 1    
    77   40   41 1    
    78   40   42 1    
    79   40  106 1    
    80   41  107 1    
    81   41  108 1    
    82   41  109 1    
    83   42   43 2    
    84   42   44 am   BACKBONE|DICT|INTERRES
    85   44   45 1    
    86   44  110 1    
    87   45   46 1    
    88   45   47 1    
    89   45  111 1    
    90   46  112 1    
    91   46  113 1    
    92   46  114 1    
    93   47   48 2    
    94   47   49 am   BACKBONE|DICT|INTERRES
    95   49   50 1    
    96   49  115 1    
    97   50   51 1    
    98   50   52 1    
    99   50  116 1    
   100   51  117 1    
   101   51  118 1    
   102   51  119 1    
   103   52   53 2    
   104   52   54 am   BACKBONE|DICT|INTERRES
   105   54   55 1    
   106   54  120 1    
   107   55   56 1    
   108   55   57 1    
   109   55  121 1    
   110   56  122 1    
   111   56  123 1    
   112   56  124 1    
   113   57   58 2    
   114   57   59 am   BACKBONE|DICT|INTERRES
   115   59   60 1    
   116   59  125 1    
   117   60   61 1    
   118   60   62 1    
   119   60  126 1    
   120   61  127 1    
   121   61  128 1    
   122   61  129 1    
   123   62   63 2    
   124   62   64 am   BACKBONE|DICT|INTERRES
   125   64   65 1    
   126   64  130 1    
   127   65   66 1    
   128   65   69 1    
   129   65  131 1    
   130   66   67 am   BACKBONE|DICT|INTERRES
   131   66   68 2    
   132   67  132 1    
   133   67  133 1    
   134   69   70 1    
   135   69  134 1    
   136   69  135 1    
   137   70   71 1    
   138   71  136 1    
   139   71  137 1    
@<TRIPOS>SUBSTRUCTURE
     1 UNK         1 GROUP             0       ****    0 ROOT    
