@<TRIPOS>MOLECULE
3R137
137   139    1
SMALL
USER_CHARGES


@<TRIPOS>ATOM
      1 CA         27.9170   -4.7754   -7.7236 C.3       0 UNK        -0.2020 
      2 C          27.1194   -4.9192   -6.4357 C.2       0 UNK         0.4855 
      3 O          25.8921   -4.8216   -6.4528 O.2       0 UNK        -0.5197 
      4 N          27.8144   -5.1338   -5.3134 N.am      1 UNK        -0.4892 
      5 CA         27.2887   -5.2091   -3.9451 C.3       1 UNK         0.0835 
      6 C6         28.3802   -5.6269   -2.9063 C.3       12 UNK        -0.0855 
      7 S7         30.1252   -5.3861   -3.4294 S.3       12 UNK        -0.2931 
      8 C8         30.9375   -4.7925   -1.9137 C.3       12 UNK         0.0378 
      9 C9         30.8784   -3.2775   -1.7953 C.ar      12 UNK        -0.0802 
     10 C10        31.8423   -2.4839   -2.4253 C.ar      12 UNK        -0.0944 
     11 C11        31.8075   -1.0883   -2.3127 C.ar      12 UNK        -0.0787 
     12 C12        30.7996   -0.4947   -1.5409 C.ar      12 UNK        -0.0862 
     13 C13        29.8380   -1.2793   -0.8915 C.ar      12 UNK        -0.0733 
     14 C14        29.8824   -2.6694   -1.0297 C.ar      12 UNK        -0.0832 
     15 C15        28.7869   -0.6471    0.0154 C.3       12 UNK         0.0240 
     16 S16        27.0838   -1.0452   -0.5050 S.3       12 UNK        -0.2522 
     17 C17        26.5250    0.4670   -1.3591 C.3       12 UNK        -0.0967 
     18 CA         27.4748    1.0023   -2.4573 C.3       5 UNK         0.0660 
     19 N          27.8343   -0.0095   -3.4598 N.am      5 UNK        -0.4015 
     20 C          28.7416    0.1912   -4.4264 C.2       4 UNK         0.4946 
     21 O          29.4203    1.2132   -4.5109 O.2       4 UNK        -0.5353 
     22 CA         28.8335   -0.8487   -5.5488 C.3       4 UNK         0.0277 
     23 CB         29.7574   -2.0222   -5.1960 C.3       4 UNK        -0.1981 
     24 N          27.5095   -1.3494   -5.9095 N.am      4 UNK        -0.4209 
     25 C          26.6528   -0.6968   -6.7067 C.2       3 UNK         0.4942 
     26 O          26.9354    0.3422   -7.2983 O.2       3 UNK        -0.5208 
     27 CA         25.2296   -1.2624   -6.8494 C.3       3 UNK         0.0250 
     28 CB         25.0678   -2.0079   -8.1833 C.3       3 UNK        -0.1990 
     29 N          24.8511   -2.1300   -5.7308 N.am      3 UNK        -0.4232 
     30 C          24.5900   -1.6739   -4.4954 C.2       2 UNK         0.4993 
     31 O          24.5728   -0.4773   -4.2044 O.2       2 UNK        -0.5286 
     32 CA         24.3891   -2.7226   -3.3851 C.3       2 UNK         0.0209 
     33 CB         22.9117   -3.1340   -3.2905 C.3       2 UNK        -0.1931 
     34 N          25.2244   -3.9173   -3.5608 N.am      2 UNK        -0.4546 
     35 C          26.5652   -3.8990   -3.5677 C.2       1 UNK         0.5154 
     36 O          27.2172   -2.8758   -3.3689 O.2       1 UNK        -0.5181 
     37 C          26.8868    2.2777   -3.1024 C.2       5 UNK         0.5014 
     38 O          27.1879    3.3815   -2.6459 O.2       5 UNK        -0.5248 
     39 N          26.0952    2.1073   -4.1717 N.am      6 UNK        -0.4434 
     40 CA         25.5821    3.1906   -5.0164 C.3       6 UNK         0.0363 
     41 CB         24.3783    2.6653   -5.8161 C.3       6 UNK        -0.1936 
     42 C          26.6321    3.7921   -5.9761 C.2       6 UNK         0.5081 
     43 O          26.3513    4.8281   -6.5796 O.2       6 UNK        -0.5248 
     44 N          27.7948    3.1367   -6.1228 N.am      7 UNK        -0.4718 
     45 CA         28.8969    3.4423   -7.0460 C.3       7 UNK         0.0273 
     46 CB         29.6102    4.7468   -6.6349 C.3       7 UNK        -0.1935 
     47 C          28.4744    3.4211   -8.5305 C.2       7 UNK         0.5018 
     48 O          28.9349    4.2503   -9.3184 O.2       7 UNK        -0.5186 
     49 N          27.5895    2.4793   -8.8775 N.am      8 UNK        -0.4240 
     50 CA         27.0404    2.2770  -10.2166 C.3       8 UNK         0.0235 
     51 CB         25.5294    2.0175  -10.0938 C.3       8 UNK        -0.2000 
     52 C          27.7213    1.1144  -10.9568 C.2       8 UNK         0.4941 
     53 O          27.7148    1.1156  -12.1889 O.2       8 UNK        -0.5273 
     54 N          28.2885    0.1479  -10.2233 N.am      9 UNK        -0.4262 
     55 CA         28.9912   -1.0137  -10.7646 C.3       9 UNK         0.0264 
     56 CB         27.9865   -2.1446  -11.0491 C.3       9 UNK        -0.1955 
     57 C          30.0464   -1.4680   -9.7536 C.2       9 UNK         0.5031 
     58 O          29.8301   -1.3111   -8.5531 O.2       9 UNK        -0.5390 
     59 N          31.1492   -2.0464  -10.2478 N.am      10 UNK        -0.4204 
     60 CA         32.3255   -2.5168   -9.5013 C.3       10 UNK         0.0237 
     61 CB         31.9705   -3.6384   -8.5004 C.3       10 UNK        -0.1985 
     62 C          33.1107   -1.3664   -8.8446 C.2       10 UNK         0.4970 
     63 O          34.1948   -1.0326   -9.3250 O.2       10 UNK        -0.4914 
     64 N          32.5501   -0.7754   -7.7843 N.am      11 UNK        -0.4285 
     65 CA         33.0569    0.4500   -7.1507 C.3       11 UNK         0.1007 
     66 C          32.6131    1.7141   -7.9373 C.2       11 UNK         0.5703 
     67 N          33.3537    2.8075   -7.8161 N.am      11 UNK        -0.7361 
     68 O          31.5970    1.7273   -8.6295 O.2       11 UNK        -0.4986 
     69 C69        32.6373    0.5477   -5.6615 C.3       12 UNK        -0.0947 
     70 S70        33.4125   -0.7337   -4.6211 S.3       12 UNK        -0.2240 
     71 C71        32.8979   -0.2184   -2.9420 C.3       12 UNK         0.0194 
     72 H72        27.3803   -5.2293   -8.5562 H         1 UNK         0.0906 
     73 H73        28.0766   -3.7214   -7.9516 H         1 UNK         0.0906 
     74 H74        28.8918   -5.2570   -7.6484 H         1 UNK         0.0906 
     75 H75        28.8239   -5.1881   -5.3542 H         1 UNK         0.3140 
     76 H76        26.5340   -5.9986   -3.9484 H         1 UNK         0.1085 
     77 H77        28.2717   -6.6924   -2.6982 H         1 UNK         0.0836 
     78 H78        28.2188   -5.1401   -1.9425 H         1 UNK         0.0836 
     79 H79        31.9807   -5.1115   -1.9327 H         1 UNK         0.0731 
     80 H80        30.4947   -5.2708   -1.0387 H         1 UNK         0.0731 
     81 H81        32.6248   -2.9584   -3.0011 H         1 UNK         0.1312 
     82 H82        30.7789    0.5803   -1.4261 H         1 UNK         0.1406 
     83 H83        29.1421   -3.2779   -0.5289 H         1 UNK         0.1631 
     84 H84        28.9186    0.4326    0.0930 H         1 UNK         0.0717 
     85 H85        28.9319   -1.0354    1.0243 H         1 UNK         0.0717 
     86 H86        25.5401    0.2557   -1.7796 H         1 UNK         0.0934 
     87 H87        26.3643    1.2333   -0.5980 H         1 UNK         0.0934 
     88 H88        28.4058    1.3116   -1.9811 H         1 UNK         0.0739 
     89 H89        27.3845   -0.9180   -3.3868 H         1 UNK         0.3093 
     90 H90        29.2589   -0.3318   -6.4081 H         1 UNK         0.0818 
     91 H91        29.5062   -2.4734   -4.2384 H         1 UNK         0.0819 
     92 H92        29.7208   -2.8004   -5.9567 H         1 UNK         0.0819 
     93 H93        30.7905   -1.6947   -5.1254 H         1 UNK         0.0819 
     94 H94        27.1883   -2.1603   -5.3979 H         1 UNK         0.3041 
     95 H95        24.5426   -0.4146   -6.8631 H         1 UNK         0.0784 
     96 H96        25.7350   -2.8649   -8.2571 H         1 UNK         0.0793 
     97 H97        24.0469   -2.3659   -8.3161 H         1 UNK         0.0793 
     98 H98        25.2930   -1.3519   -9.0252 H         1 UNK         0.0793 
     99 H99        24.9073   -3.1321   -5.8899 H         1 UNK         0.3024 
    100 H100       24.6771   -2.2523   -2.4417 H         1 UNK         0.1171 
    101 H101       22.7402   -3.8070   -2.4502 H         1 UNK         0.0786 
    102 H102       22.2737   -2.2618   -3.1401 H         1 UNK         0.0786 
    103 H103       22.5717   -3.6344   -4.1982 H         1 UNK         0.0786 
    104 H104       24.7450   -4.7793   -3.7798 H         1 UNK         0.2977 
    105 H105       25.8153    1.1632   -4.4188 H         1 UNK         0.3127 
    106 H106       25.2340    3.9960   -4.3662 H         1 UNK         0.0770 
    107 H107       24.6801    1.9144   -6.5458 H         1 UNK         0.0814 
    108 H108       23.8945    3.4730   -6.3667 H         1 UNK         0.0814 
    109 H109       23.6261    2.2206   -5.1641 H         1 UNK         0.0814 
    110 H110       27.9447    2.3116   -5.5546 H         1 UNK         0.2983 
    111 H111       29.6146    2.6285   -6.9318 H         1 UNK         0.0947 
    112 H112       30.5074    4.9053   -7.2344 H         1 UNK         0.0806 
    113 H113       29.9216    4.7139   -5.5909 H         1 UNK         0.0806 
    114 H114       28.9690    5.6185   -6.7690 H         1 UNK         0.0806 
    115 H115       27.2940    1.8072   -8.1679 H         1 UNK         0.3000 
    116 H116       27.1824    3.1784  -10.8166 H         1 UNK         0.0850 
    117 H117       25.0757    1.8741  -11.0754 H         1 UNK         0.0810 
    118 H118       25.0219    2.8585   -9.6209 H         1 UNK         0.0810 
    119 H119       25.3192    1.1259   -9.5021 H         1 UNK         0.0810 
    120 H120       28.2904    0.2102   -9.2106 H         1 UNK         0.3040 
    121 H121       29.4982   -0.7319  -11.6900 H         1 UNK         0.0766 
    122 H122       27.2401   -1.8383  -11.7822 H         1 UNK         0.0812 
    123 H123       27.4607   -2.4491  -10.1438 H         1 UNK         0.0812 
    124 H124       28.4894   -3.0266  -11.4475 H         1 UNK         0.0812 
    125 H125       31.2287   -2.1194  -11.2530 H         1 UNK         0.3205 
    126 H126       32.9897   -2.9579  -10.2466 H         1 UNK         0.0754 
    127 H127       31.2954   -3.3017   -7.7146 H         1 UNK         0.0769 
    128 H128       32.8680   -4.0185   -8.0109 H         1 UNK         0.0769 
    129 H129       31.4960   -4.4799   -9.0051 H         1 UNK         0.0769 
    130 H130       31.5929   -1.0325   -7.5697 H         1 UNK         0.2981 
    131 H131       34.1480    0.4222   -7.1840 H         1 UNK         0.0541 
    132 H132       34.1855    2.8160   -7.2468 H         1 UNK         0.3459 
    133 H133       33.0786    3.6396   -8.3133 H         1 UNK         0.3459 
    134 H134       32.9152    1.5191   -5.2484 H         1 UNK         0.0612 
    135 H135       31.5568    0.4738   -5.5717 H         1 UNK         0.0612 
    136 H136       32.5848    0.8264   -2.9646 H         1 UNK         0.0624 
    137 H137       33.7740   -0.2579   -2.2939 H         1 UNK         0.0624 
@<TRIPOS>BOND
     1    1    2 1    
     2    1   72 1    
     3    1   73 1    
     4    1   74 1    
     5    2    3 2    
     6    2    4 am   BACKBONE|DICT|INTERRES
     7    4    5 1    
     8    4   75 1    
     9    5    6 1    
    10    5   35 1    
    11    5   76 1    
    12    6    7 1    
    13    6   77 1    
    14    6   78 1    
    15    7    8 1    
    16    8    9 1    
    17    8   79 1    
    18    8   80 1    
    19    9   10 ar   
    20    9   14 ar   
    21   10   11 ar   
    22   10   81 1    
    23   11   12 ar   
    24   11   71 1    
    25   12   13 ar   
    26   12   82 1    
    27   13   14 ar   
    28   13   15 1    
    29   14   83 1    
    30   15   16 1    
    31   15   84 1    
    32   15   85 1    
    33   16   17 1    
    34   17   18 1    
    35   17   86 1    
    36   17   87 1    
    37   18   19 1    
    38   18   37 1    
    39   18   88 1    
    40   19   20 am   BACKBONE|DICT|INTERRES
    41   19   89 1    
    42   20   21 2    
    43   20   22 1    
    44   22   23 1    
    45   22   24 1    
    46   22   90 1    
    47   23   91 1    
    48   23   92 1    
    49   23   93 1    
    50   24   25 am   BACKBONE|DICT|INTERRES
    51   24   94 1    
    52   25   26 2    
    53   25   27 1    
    54   27   28 1    
    55   27   29 1    
    56   27   95 1    
    57   28   96 1    
    58   28   97 1    
    59   28   98 1    
    60   29   30 am   BACKBONE|DICT|INTERRES
    61   29   99 1    
    62   30   31 2    
    63   30   32 1    
    64   32   33 1    
    65   32   34 1    
    66   32  100 1    
    67   33  101 1    
    68   33  102 1    
    69   33  103 1    
    70   34   35 am   BACKBONE|DICT|INTERRES
    71   34  104 1    
    72   35   36 2    
    73   37   38 2    
    74   37   39 am   BACKBONE|DICT|INTERRES
    75   39   40 1    
    76   39  105 1    
    77   40   41 1    
    78   40   42 1    
    79   40  106 1    
    80   41  107 1    
    81   41  108 1    
    82   41  109 1    
    83   42   43 2    
    84   42   44 am   BACKBONE|DICT|INTERRES
    85   44   45 1    
    86   44  110 1    
    87   45   46 1    
    88   45   47 1    
    89   45  111 1    
    90   46  112 1    
    91   46  113 1    
    92   46  114 1    
    93   47   48 2    
    94   47   49 am   BACKBONE|DICT|INTERRES
    95   49   50 1    
    96   49  115 1    
    97   50   51 1    
    98   50   52 1    
    99   50  116 1    
   100   51  117 1    
   101   51  118 1    
   102   51  119 1    
   103   52   53 2    
   104   52   54 am   BACKBONE|DICT|INTERRES
   105   54   55 1    
   106   54  120 1    
   107   55   56 1    
   108   55   57 1    
   109   55  121 1    
   110   56  122 1    
   111   56  123 1    
   112   56  124 1    
   113   57   58 2    
   114   57   59 am   BACKBONE|DICT|INTERRES
   115   59   60 1    
   116   59  125 1    
   117   60   61 1    
   118   60   62 1    
   119   60  126 1    
   120   61  127 1    
   121   61  128 1    
   122   61  129 1    
   123   62   63 2    
   124   62   64 am   BACKBONE|DICT|INTERRES
   125   64   65 1    
   126   64  130 1    
   127   65   66 1    
   128   65   69 1    
   129   65  131 1    
   130   66   67 am   BACKBONE|DICT|INTERRES
   131   66   68 2    
   132   67  132 1    
   133   67  133 1    
   134   69   70 1    
   135   69  134 1    
   136   69  135 1    
   137   70   71 1    
   138   71  136 1    
   139   71  137 1    
@<TRIPOS>SUBSTRUCTURE
     1 UNK         1 GROUP             0       ****    0 ROOT    
