@<TRIPOS>MOLECULE
3R137
137   139    1
SMALL
USER_CHARGES


@<TRIPOS>ATOM
      1 CA         25.4918   -0.4559   -7.8999 C.3       0 UNK        -0.2020 
      2 C          25.9628   -1.3375   -6.7529 C.2       0 UNK         0.4855 
      3 O          26.5237   -0.8245   -5.7854 O.2       0 UNK        -0.5197 
      4 N          25.7295   -2.6515   -6.8762 N.am      1 UNK        -0.4892 
      5 CA         26.0326   -3.7253   -5.9206 C.3       1 UNK         0.0835 
      6 C6         27.5112   -3.7990   -5.4664 C.3       12 UNK        -0.0855 
      7 S7         28.6911   -4.0704   -6.8308 S.3       12 UNK        -0.2931 
      8 C8         30.1897   -4.5293   -5.8974 C.3       12 UNK         0.0378 
      9 C9         30.5499   -3.4718   -4.8637 C.ar      12 UNK        -0.0802 
     10 C10        31.2259   -2.3133   -5.2498 C.ar      12 UNK        -0.0944 
     11 C11        31.5007   -1.3048   -4.3220 C.ar      12 UNK        -0.0787 
     12 C12        31.0991   -1.4670   -2.9918 C.ar      12 UNK        -0.0862 
     13 C13        30.4223   -2.6259   -2.5921 C.ar      12 UNK        -0.0733 
     14 C14        30.1672   -3.6305   -3.5286 C.ar      12 UNK        -0.0832 
     15 C15        29.9409   -2.7948   -1.1572 C.3       12 UNK         0.0240 
     16 S16        28.1700   -2.3862   -0.9873 S.3       12 UNK        -0.2522 
     17 C17        28.2052   -0.5880   -1.2783 C.3       12 UNK        -0.0967 
     18 CA         27.7239   -0.2248   -2.7139 C.3       5 UNK         0.0660 
     19 N          26.2608   -0.2754   -2.8627 N.am      5 UNK        -0.4015 
     20 C          25.3785    0.5844   -2.3299 C.2       4 UNK         0.4946 
     21 O          25.6737    1.4708   -1.5269 O.2       4 UNK        -0.5353 
     22 CA         23.9156    0.4441   -2.7620 C.3       4 UNK         0.0277 
     23 CB         23.7355    0.5205   -4.2889 C.3       4 UNK        -0.1981 
     24 N          23.3499   -0.8001   -2.2485 N.am      4 UNK        -0.4209 
     25 C          22.1343   -0.9138   -1.6960 C.2       3 UNK         0.4942 
     26 O          21.3581    0.0348   -1.5629 O.2       3 UNK        -0.5208 
     27 CA         21.7120   -2.3072   -1.1808 C.3       3 UNK         0.0250 
     28 CB         20.1860   -2.5328   -1.2599 C.3       3 UNK        -0.1990 
     29 N          22.4395   -3.4245   -1.7974 N.am      3 UNK        -0.4232 
     30 C          22.4383   -3.7827   -3.0898 C.2       2 UNK         0.4993 
     31 O          21.7732   -3.2354   -3.9722 O.2       2 UNK        -0.5286 
     32 CA         23.3473   -4.9682   -3.4522 C.3       2 UNK         0.0209 
     33 CB         22.5073   -6.2244   -3.7375 C.3       2 UNK        -0.1931 
     34 N          24.2197   -4.6984   -4.5990 N.am      2 UNK        -0.4546 
     35 C          25.0964   -3.6875   -4.6954 C.2       1 UNK         0.5154 
     36 O          25.2192   -2.8008   -3.8453 O.2       1 UNK        -0.5181 
     37 C          28.2982    1.1168   -3.2283 C.2       5 UNK         0.5014 
     38 O          29.1363    1.7311   -2.5631 O.2       5 UNK        -0.5248 
     39 N          27.8177    1.5680   -4.3932 N.am      6 UNK        -0.4434 
     40 CA         28.1792    2.8457   -4.9994 C.3       6 UNK         0.0363 
     41 CB         27.4776    4.0060   -4.2666 C.3       6 UNK        -0.1936 
     42 C          27.7809    2.8325   -6.4749 C.2       6 UNK         0.5081 
     43 O          26.7492    2.2567   -6.8177 O.2       6 UNK        -0.5248 
     44 N          28.5883    3.5023   -7.3078 N.am      7 UNK        -0.4718 
     45 CA         28.4129    3.6962   -8.7556 C.3       7 UNK         0.0273 
     46 CB         27.1123    4.4708   -9.0613 C.3       7 UNK        -0.1935 
     47 C          28.5454    2.4166   -9.6087 C.2       7 UNK         0.5018 
     48 O          28.2246    2.4546  -10.7984 O.2       7 UNK        -0.5186 
     49 N          29.0533    1.3251   -9.0213 N.am      8 UNK        -0.4240 
     50 CA         29.4944    0.1332   -9.7466 C.3       8 UNK         0.0235 
     51 CB         29.4822   -1.0736   -8.7942 C.3       8 UNK        -0.2000 
     52 C          30.9087    0.3618  -10.3006 C.2       8 UNK         0.4941 
     53 O          31.6500    1.1860   -9.7601 O.2       8 UNK        -0.5273 
     54 N          31.2891   -0.4067  -11.3308 N.am      9 UNK        -0.4262 
     55 CA         32.6096   -0.3394  -11.9754 C.3       9 UNK         0.0264 
     56 CB         32.6516   -1.3139  -13.1636 C.3       9 UNK        -0.1955 
     57 C          33.7889   -0.6032  -11.0188 C.2       9 UNK         0.5031 
     58 O          34.8542   -0.0083  -11.1875 O.2       9 UNK        -0.5390 
     59 N          33.5612   -1.4535  -10.0087 N.am      10 UNK        -0.4204 
     60 CA         34.5038   -1.7467   -8.9282 C.3       10 UNK         0.0237 
     61 CB         34.0482   -3.0224   -8.2002 C.3       10 UNK        -0.1985 
     62 C          34.6996   -0.5872   -7.9304 C.2       10 UNK         0.4970 
     63 O          35.6920   -0.6060   -7.2011 O.2       10 UNK        -0.4914 
     64 N          33.7792    0.3885   -7.8997 N.am      11 UNK        -0.4285 
     65 CA         33.8689    1.5848   -7.0454 C.3       11 UNK         0.1007 
     66 C          34.7499    2.7179   -7.6488 C.2       11 UNK         0.5703 
     67 N          35.2445    2.6028   -8.8768 N.am      11 UNK        -0.7361 
     68 O          35.0033    3.7181   -6.9815 O.2       11 UNK        -0.4986 
     69 C69        32.4706    2.1242   -6.6237 C.3       12 UNK        -0.0947 
     70 S70        31.2802    0.8825   -6.0052 S.3       12 UNK        -0.2240 
     71 C71        32.2401   -0.0524   -4.7693 C.3       12 UNK         0.0194 
     72 H72        24.8224    0.3173   -7.5236 H         1 UNK         0.0906 
     73 H73        26.3439    0.0364   -8.3677 H         1 UNK         0.0906 
     74 H74        24.9623   -1.0210   -8.6664 H         1 UNK         0.0906 
     75 H75        25.2559   -2.9688   -7.7105 H         1 UNK         0.3140 
     76 H76        25.8283   -4.6520   -6.4596 H         1 UNK         0.1085 
     77 H77        27.7956   -2.8896   -4.9354 H         1 UNK         0.0836 
     78 H78        27.6368   -4.6162   -4.7535 H         1 UNK         0.0836 
     79 H79        31.0180   -4.6620   -6.5951 H         1 UNK         0.0731 
     80 H80        30.0346   -5.4973   -5.4183 H         1 UNK         0.0731 
     81 H81        31.5131   -2.1799   -6.2822 H         1 UNK         0.1312 
     82 H82        31.3017   -0.6858   -2.2721 H         1 UNK         0.1406 
     83 H83        29.6340   -4.5205   -3.2228 H         1 UNK         0.1631 
     84 H84        30.5297   -2.1788   -0.4757 H         1 UNK         0.0717 
     85 H85        30.0950   -3.8272   -0.8399 H         1 UNK         0.0717 
     86 H86        27.5933   -0.0945   -0.5224 H         1 UNK         0.0934 
     87 H87        29.2221   -0.2442   -1.0874 H         1 UNK         0.0934 
     88 H88        28.1189   -0.9721   -3.4038 H         1 UNK         0.0739 
     89 H89        25.9248   -0.9860   -3.5096 H         1 UNK         0.3093 
     90 H90        23.3909    1.2984   -2.3281 H         1 UNK         0.0818 
     91 H91        24.0432   -0.4035   -4.7762 H         1 UNK         0.0819 
     92 H92        22.6913    0.6930   -4.5490 H         1 UNK         0.0819 
     93 H93        24.3190    1.3353   -4.7210 H         1 UNK         0.0819 
     94 H94        23.9316   -1.6249   -2.3372 H         1 UNK         0.3041 
     95 H95        21.9862   -2.3214   -0.1249 H         1 UNK         0.0784 
     96 H96        19.6481   -1.7939   -0.6645 H         1 UNK         0.0793 
     97 H97        19.8173   -2.4540   -2.2830 H         1 UNK         0.0793 
     98 H98        19.9092   -3.5155   -0.8779 H         1 UNK         0.0793 
     99 H99        23.0281   -3.9475   -1.1628 H         1 UNK         0.3024 
    100 H100       24.0000   -5.1814   -2.6026 H         1 UNK         0.1171 
    101 H101       23.1387   -7.0950   -3.9166 H         1 UNK         0.0786 
    102 H102       21.8619   -6.4636   -2.8909 H         1 UNK         0.0786 
    103 H103       21.8642   -6.0893   -4.6083 H         1 UNK         0.0786 
    104 H104       24.1688   -5.3654   -5.3551 H         1 UNK         0.2977 
    105 H105       27.1850    0.9853   -4.9393 H         1 UNK         0.3127 
    106 H106       29.2615    2.9734   -4.9283 H         1 UNK         0.0770 
    107 H107       26.3931    3.8892   -4.2809 H         1 UNK         0.0814 
    108 H108       27.7104    4.9634   -4.7344 H         1 UNK         0.0814 
    109 H109       27.7918    4.0721   -3.2250 H         1 UNK         0.0814 
    110 H110       29.4119    3.9389   -6.9157 H         1 UNK         0.2983 
    111 H111       29.2443    4.3308   -9.0667 H         1 UNK         0.0947 
    112 H112       26.2249    3.8706   -8.8585 H         1 UNK         0.0806 
    113 H113       27.0685    4.7653  -10.1105 H         1 UNK         0.0806 
    114 H114       27.0439    5.3830   -8.4687 H         1 UNK         0.0806 
    115 H115       29.3372    1.3951   -8.0549 H         1 UNK         0.3000 
    116 H116       28.8107   -0.0623  -10.5755 H         1 UNK         0.0850 
    117 H117       29.7260   -1.9961   -9.3220 H         1 UNK         0.0810 
    118 H118       28.5020   -1.2158   -8.3411 H         1 UNK         0.0810 
    119 H119       30.2043   -0.9637   -7.9861 H         1 UNK         0.0810 
    120 H120       30.6293   -1.0672  -11.7173 H         1 UNK         0.3040 
    121 H121       32.7305    0.6748  -12.3620 H         1 UNK         0.0766 
    122 H122       31.8870   -1.0733  -13.9025 H         1 UNK         0.0812 
    123 H123       32.5010   -2.3466  -12.8465 H         1 UNK         0.0812 
    124 H124       33.6156   -1.2669  -13.6723 H         1 UNK         0.0812 
    125 H125       32.6551   -1.8948   -9.9562 H         1 UNK         0.3205 
    126 H126       35.4793   -1.9453   -9.3776 H         1 UNK         0.0754 
    127 H127       33.0447   -2.9179   -7.7900 H         1 UNK         0.0769 
    128 H128       34.7165   -3.2642   -7.3723 H         1 UNK         0.0769 
    129 H129       34.0462   -3.8811   -8.8720 H         1 UNK         0.0769 
    130 H130       33.0095    0.3905   -8.5607 H         1 UNK         0.2981 
    131 H131       34.3860    1.3041   -6.1271 H         1 UNK         0.0541 
    132 H132       35.0440    1.7884   -9.4384 H         1 UNK         0.3459 
    133 H133       35.8174    3.3434   -9.2488 H         1 UNK         0.3459 
    134 H134       32.5819    2.8852   -5.8493 H         1 UNK         0.0612 
    135 H135       31.9947    2.6249   -7.4686 H         1 UNK         0.0612 
    136 H136       33.1957   -0.3663   -5.1868 H         1 UNK         0.0624 
    137 H137       32.4619    0.5994   -3.9231 H         1 UNK         0.0624 
@<TRIPOS>BOND
     1    1    2 1    
     2    1   72 1    
     3    1   73 1    
     4    1   74 1    
     5    2    3 2    
     6    2    4 am   BACKBONE|DICT|INTERRES
     7    4    5 1    
     8    4   75 1    
     9    5    6 1    
    10    5   35 1    
    11    5   76 1    
    12    6    7 1    
    13    6   77 1    
    14    6   78 1    
    15    7    8 1    
    16    8    9 1    
    17    8   79 1    
    18    8   80 1    
    19    9   10 ar   
    20    9   14 ar   
    21   10   11 ar   
    22   10   81 1    
    23   11   12 ar   
    24   11   71 1    
    25   12   13 ar   
    26   12   82 1    
    27   13   14 ar   
    28   13   15 1    
    29   14   83 1    
    30   15   16 1    
    31   15   84 1    
    32   15   85 1    
    33   16   17 1    
    34   17   18 1    
    35   17   86 1    
    36   17   87 1    
    37   18   19 1    
    38   18   37 1    
    39   18   88 1    
    40   19   20 am   BACKBONE|DICT|INTERRES
    41   19   89 1    
    42   20   21 2    
    43   20   22 1    
    44   22   23 1    
    45   22   24 1    
    46   22   90 1    
    47   23   91 1    
    48   23   92 1    
    49   23   93 1    
    50   24   25 am   BACKBONE|DICT|INTERRES
    51   24   94 1    
    52   25   26 2    
    53   25   27 1    
    54   27   28 1    
    55   27   29 1    
    56   27   95 1    
    57   28   96 1    
    58   28   97 1    
    59   28   98 1    
    60   29   30 am   BACKBONE|DICT|INTERRES
    61   29   99 1    
    62   30   31 2    
    63   30   32 1    
    64   32   33 1    
    65   32   34 1    
    66   32  100 1    
    67   33  101 1    
    68   33  102 1    
    69   33  103 1    
    70   34   35 am   BACKBONE|DICT|INTERRES
    71   34  104 1    
    72   35   36 2    
    73   37   38 2    
    74   37   39 am   BACKBONE|DICT|INTERRES
    75   39   40 1    
    76   39  105 1    
    77   40   41 1    
    78   40   42 1    
    79   40  106 1    
    80   41  107 1    
    81   41  108 1    
    82   41  109 1    
    83   42   43 2    
    84   42   44 am   BACKBONE|DICT|INTERRES
    85   44   45 1    
    86   44  110 1    
    87   45   46 1    
    88   45   47 1    
    89   45  111 1    
    90   46  112 1    
    91   46  113 1    
    92   46  114 1    
    93   47   48 2    
    94   47   49 am   BACKBONE|DICT|INTERRES
    95   49   50 1    
    96   49  115 1    
    97   50   51 1    
    98   50   52 1    
    99   50  116 1    
   100   51  117 1    
   101   51  118 1    
   102   51  119 1    
   103   52   53 2    
   104   52   54 am   BACKBONE|DICT|INTERRES
   105   54   55 1    
   106   54  120 1    
   107   55   56 1    
   108   55   57 1    
   109   55  121 1    
   110   56  122 1    
   111   56  123 1    
   112   56  124 1    
   113   57   58 2    
   114   57   59 am   BACKBONE|DICT|INTERRES
   115   59   60 1    
   116   59  125 1    
   117   60   61 1    
   118   60   62 1    
   119   60  126 1    
   120   61  127 1    
   121   61  128 1    
   122   61  129 1    
   123   62   63 2    
   124   62   64 am   BACKBONE|DICT|INTERRES
   125   64   65 1    
   126   64  130 1    
   127   65   66 1    
   128   65   69 1    
   129   65  131 1    
   130   66   67 am   BACKBONE|DICT|INTERRES
   131   66   68 2    
   132   67  132 1    
   133   67  133 1    
   134   69   70 1    
   135   69  134 1    
   136   69  135 1    
   137   70   71 1    
   138   71  136 1    
   139   71  137 1    
@<TRIPOS>SUBSTRUCTURE
     1 UNK         1 GROUP             0       ****    0 ROOT    
