@<TRIPOS>MOLECULE
3R137
137   139    1
SMALL
USER_CHARGES


@<TRIPOS>ATOM
      1 CA         27.9780    1.4573   -3.8732 C.3       0 UNK        -0.2020 
      2 C          27.8335    0.2287   -2.9911 C.2       0 UNK         0.4855 
      3 O          27.3379    0.3376   -1.8687 O.2       0 UNK        -0.5197 
      4 N          28.2393   -0.9403   -3.5065 N.am      1 UNK        -0.4892 
      5 CA         28.1279   -2.2675   -2.8863 C.3       1 UNK         0.0835 
      6 C6         29.2200   -2.5105   -1.8052 C.3       12 UNK        -0.0855 
      7 S7         29.3945   -4.2837   -1.3854 S.3       12 UNK        -0.2931 
      8 C8         30.8534   -4.7984   -2.3552 C.3       12 UNK         0.0378 
      9 C9         30.7319   -4.4328   -3.8287 C.ar      12 UNK        -0.0802 
     10 C10        31.6028   -3.4925   -4.3871 C.ar      12 UNK        -0.0944 
     11 C11        31.4690   -3.1025   -5.7220 C.ar      12 UNK        -0.0787 
     12 C12        30.4449   -3.6560   -6.4966 C.ar      12 UNK        -0.0862 
     13 C13        29.5662   -4.5972   -5.9511 C.ar      12 UNK        -0.0733 
     14 C14        29.7314   -5.0031   -4.6234 C.ar      12 UNK        -0.0832 
     15 C15        28.4205   -5.1504   -6.7885 C.3       12 UNK         0.0240 
     16 S16        26.8370   -4.3291   -6.4029 S.3       12 UNK        -0.2522 
     17 C17        27.2371   -2.5877   -6.7717 C.3       12 UNK        -0.0967 
     18 CA         26.0043   -1.6837   -7.0348 C.3       5 UNK         0.0660 
     19 N          24.9929   -1.7848   -5.9728 N.am      5 UNK        -0.4015 
     20 C          23.6866   -1.5184   -6.1231 C.2       4 UNK         0.4946 
     21 O          23.1969   -1.0984   -7.1725 O.2       4 UNK        -0.5353 
     22 CA         22.7849   -1.6983   -4.8985 C.3       4 UNK         0.0277 
     23 CB         22.5255   -3.1904   -4.6311 C.3       4 UNK        -0.1981 
     24 N          23.3971   -1.0949   -3.7184 N.am      4 UNK        -0.4209 
     25 C          23.0555    0.0802   -3.1713 C.2       3 UNK         0.4942 
     26 O          22.1849    0.8169   -3.6375 O.2       3 UNK        -0.5208 
     27 CA         23.8131    0.5200   -1.8960 C.3       3 UNK         0.0250 
     28 CB         22.8919    1.2219   -0.8758 C.3       3 UNK        -0.1990 
     29 N          24.5843   -0.5584   -1.2607 N.am      3 UNK        -0.4232 
     30 C          24.1154   -1.7117   -0.7524 C.2       2 UNK         0.4993 
     31 O          22.9183   -1.9433   -0.5782 O.2       2 UNK        -0.5286 
     32 CA         25.1487   -2.8175   -0.4414 C.3       2 UNK         0.0209 
     33 CB         24.5866   -4.2269   -0.7257 C.3       2 UNK        -0.1931 
     34 N          26.4414   -2.6485   -1.1234 N.am      2 UNK        -0.4546 
     35 C          26.6753   -2.5527   -2.4429 C.2       1 UNK         0.5154 
     36 O          25.7929   -2.6046   -3.3042 O.2       1 UNK        -0.5181 
     37 C          26.4245   -0.2155   -7.2912 C.2       5 UNK         0.5014 
     38 O          27.6174    0.0739   -7.4040 O.2       5 UNK        -0.5248 
     39 N          25.4506    0.7000   -7.3751 N.am      6 UNK        -0.4434 
     40 CA         25.6502    2.1463   -7.5178 C.3       6 UNK         0.0363 
     41 CB         24.2979    2.8597   -7.3658 C.3       6 UNK        -0.1936 
     42 C          26.3385    2.5586   -8.8313 C.2       6 UNK         0.5081 
     43 O          27.0159    3.5854   -8.8581 O.2       6 UNK        -0.5248 
     44 N          26.1761    1.7456   -9.8849 N.am      7 UNK        -0.4718 
     45 CA         26.8551    1.9126  -11.1728 C.3       7 UNK         0.0273 
     46 CB         26.1564    1.0437  -12.2311 C.3       7 UNK        -0.1935 
     47 C          28.3573    1.5799  -11.1082 C.2       7 UNK         0.5018 
     48 O          29.1342    2.1679  -11.8613 O.2       7 UNK        -0.5186 
     49 N          28.7369    0.6510  -10.2190 N.am      8 UNK        -0.4240 
     50 CA         30.1282    0.2799   -9.9527 C.3       8 UNK         0.0235 
     51 CB         30.1857   -1.1833   -9.4935 C.3       8 UNK        -0.2000 
     52 C          30.7614    1.1967   -8.8955 C.2       8 UNK         0.4941 
     53 O          31.9591    1.4752   -8.9789 O.2       8 UNK        -0.5273 
     54 N          29.9481    1.6507   -7.9292 N.am      9 UNK        -0.4262 
     55 CA         30.2905    2.5581   -6.8336 C.3       9 UNK         0.0264 
     56 CB         30.6032    3.9733   -7.3723 C.3       9 UNK        -0.1955 
     57 C          31.3906    1.9539   -5.9441 C.2       9 UNK         0.5031 
     58 O          31.1168    0.9956   -5.2211 O.2       9 UNK        -0.5390 
     59 N          32.6051    2.5086   -6.0237 N.am      10 UNK        -0.4204 
     60 CA         33.7904    2.0410   -5.3057 C.3       10 UNK         0.0237 
     61 CB         34.7036    3.2495   -5.0325 C.3       10 UNK        -0.1985 
     62 C          34.5650    0.9334   -6.0470 C.2       10 UNK         0.4970 
     63 O          35.5382    0.4334   -5.4819 O.2       10 UNK        -0.4914 
     64 N          34.1644    0.5865   -7.2824 N.am      11 UNK        -0.4285 
     65 CA         34.8592   -0.3547   -8.1844 C.3       11 UNK         0.1007 
     66 C          36.2425    0.1604   -8.6972 C.2       11 UNK         0.5703 
     67 N          36.5474    1.4498   -8.6015 N.am      11 UNK        -0.7361 
     68 O          37.0428   -0.6068   -9.2279 O.2       11 UNK        -0.4986 
     69 C69        34.9145   -1.8146   -7.6320 C.3       12 UNK        -0.0947 
     70 S70        33.3273   -2.7020   -7.7433 S.3       12 UNK        -0.2240 
     71 C71        32.4119   -2.0604   -6.3087 C.3       12 UNK         0.0194 
     72 H72        28.8191    2.0637   -3.5384 H         1 UNK         0.0906 
     73 H73        28.1451    1.1793   -4.9129 H         1 UNK         0.0906 
     74 H74        27.0746    2.0649   -3.8288 H         1 UNK         0.0906 
     75 H75        28.6624   -0.9338   -4.4244 H         1 UNK         0.3140 
     76 H76        28.3061   -2.9685   -3.6988 H         1 UNK         0.1085 
     77 H77        29.0239   -1.9343   -0.8995 H         1 UNK         0.0836 
     78 H78        30.1827   -2.1461   -2.1670 H         1 UNK         0.0836 
     79 H79        30.9788   -5.8780   -2.2624 H         1 UNK         0.0731 
     80 H80        31.7444   -4.3481   -1.9146 H         1 UNK         0.0731 
     81 H81        32.3777   -3.0502   -3.7757 H         1 UNK         0.1312 
     82 H82        30.3307   -3.3486   -7.5259 H         1 UNK         0.1406 
     83 H83        29.0481   -5.7226   -4.1921 H         1 UNK         0.1631 
     84 H84        28.3176   -6.2212   -6.6072 H         1 UNK         0.0717 
     85 H85        28.6335   -5.0407   -7.8531 H         1 UNK         0.0717 
     86 H86        27.8322   -2.1978   -5.9471 H         1 UNK         0.0934 
     87 H87        27.8876   -2.5752   -7.6473 H         1 UNK         0.0934 
     88 H88        25.5467   -2.0346   -7.9622 H         1 UNK         0.0739 
     89 H89        25.3226   -2.1252   -5.0728 H         1 UNK         0.3093 
     90 H90        21.8259   -1.2205   -5.1106 H         1 UNK         0.0818 
     91 H91        22.0585   -3.6663   -5.4944 H         1 UNK         0.0819 
     92 H92        23.4467   -3.7342   -4.4165 H         1 UNK         0.0819 
     93 H93        21.8546   -3.3270   -3.7826 H         1 UNK         0.0819 
     94 H94        24.1639   -1.6165   -3.3027 H         1 UNK         0.3041 
     95 H95        24.5505    1.2519   -2.2288 H         1 UNK         0.0784 
     96 H96        22.4452    2.1197   -1.3047 H         1 UNK         0.0793 
     97 H97        22.0738    0.5764   -0.5552 H         1 UNK         0.0793 
     98 H98        23.4448    1.5299    0.0116 H         1 UNK         0.0793 
     99 H99        25.5930   -0.4561   -1.3461 H         1 UNK         0.3024 
    100 H100       25.3496   -2.7464    0.6289 H         1 UNK         0.1171 
    101 H101       25.3199   -5.0001   -0.4960 H         1 UNK         0.0786 
    102 H102       23.7045   -4.4302   -0.1173 H         1 UNK         0.0786 
    103 H103       24.2945   -4.3420   -1.7702 H         1 UNK         0.0786 
    104 H104       27.2426   -2.5717   -0.5117 H         1 UNK         0.2977 
    105 H105       24.4931    0.3640   -7.3158 H         1 UNK         0.3127 
    106 H106       26.2993    2.4691   -6.7010 H         1 UNK         0.0770 
    107 H107       23.5926    2.5566   -8.1406 H         1 UNK         0.0814 
    108 H108       24.4169    3.9418   -7.4377 H         1 UNK         0.0814 
    109 H109       23.8441    2.6486   -6.3971 H         1 UNK         0.0814 
    110 H110       25.5800    0.9376   -9.7784 H         1 UNK         0.2983 
    111 H111       26.7642    2.9587  -11.4745 H         1 UNK         0.0947 
    112 H112       26.6260    1.1675  -13.2081 H         1 UNK         0.0806 
    113 H113       25.1073    1.3191  -12.3414 H         1 UNK         0.0806 
    114 H114       26.2020   -0.0168  -11.9802 H         1 UNK         0.0806 
    115 H115       28.0373    0.2566   -9.6049 H         1 UNK         0.3000 
    116 H116       30.7100    0.3713  -10.8726 H         1 UNK         0.0850 
    117 H117       31.2197   -1.5129   -9.3968 H         1 UNK         0.0810 
    118 H118       29.6995   -1.8480  -10.2076 H         1 UNK         0.0810 
    119 H119       29.7069   -1.3162   -8.5239 H         1 UNK         0.0810 
    120 H120       29.0157    1.2480   -7.8775 H         1 UNK         0.3040 
    121 H121       29.3997    2.6427   -6.2119 H         1 UNK         0.0766 
    122 H122       31.4440    3.9846   -8.0664 H         1 UNK         0.0812 
    123 H123       30.8299    4.6643   -6.5592 H         1 UNK         0.0812 
    124 H124       29.7416    4.3801   -7.9027 H         1 UNK         0.0812 
    125 H125       32.7345    3.2759   -6.6677 H         1 UNK         0.3205 
    126 H126       33.4834    1.6260   -4.3432 H         1 UNK         0.0754 
    127 H127       35.5803    2.9572   -4.4525 H         1 UNK         0.0769 
    128 H128       34.1834    4.0175   -4.4596 H         1 UNK         0.0769 
    129 H129       35.0617    3.7046   -5.9567 H         1 UNK         0.0769 
    130 H130       33.3578    1.0475   -7.6941 H         1 UNK         0.2981 
    131 H131       34.2499   -0.3781   -9.0885 H         1 UNK         0.0541 
    132 H132       37.4369    1.7723   -8.9482 H         1 UNK         0.3459 
    133 H133       35.8964    2.1009   -8.1950 H         1 UNK         0.3459 
    134 H134       35.2868   -1.8530   -6.6085 H         1 UNK         0.0612 
    135 H135       35.6124   -2.4211   -8.2107 H         1 UNK         0.0612 
    136 H136       33.1151   -1.7147   -5.5500 H         1 UNK         0.0624 
    137 H137       31.8364   -1.1886   -6.6209 H         1 UNK         0.0624 
@<TRIPOS>BOND
     1    1    2 1    
     2    1   72 1    
     3    1   73 1    
     4    1   74 1    
     5    2    3 2    
     6    2    4 am   BACKBONE|DICT|INTERRES
     7    4    5 1    
     8    4   75 1    
     9    5    6 1    
    10    5   35 1    
    11    5   76 1    
    12    6    7 1    
    13    6   77 1    
    14    6   78 1    
    15    7    8 1    
    16    8    9 1    
    17    8   79 1    
    18    8   80 1    
    19    9   10 ar   
    20    9   14 ar   
    21   10   11 ar   
    22   10   81 1    
    23   11   12 ar   
    24   11   71 1    
    25   12   13 ar   
    26   12   82 1    
    27   13   14 ar   
    28   13   15 1    
    29   14   83 1    
    30   15   16 1    
    31   15   84 1    
    32   15   85 1    
    33   16   17 1    
    34   17   18 1    
    35   17   86 1    
    36   17   87 1    
    37   18   19 1    
    38   18   37 1    
    39   18   88 1    
    40   19   20 am   BACKBONE|DICT|INTERRES
    41   19   89 1    
    42   20   21 2    
    43   20   22 1    
    44   22   23 1    
    45   22   24 1    
    46   22   90 1    
    47   23   91 1    
    48   23   92 1    
    49   23   93 1    
    50   24   25 am   BACKBONE|DICT|INTERRES
    51   24   94 1    
    52   25   26 2    
    53   25   27 1    
    54   27   28 1    
    55   27   29 1    
    56   27   95 1    
    57   28   96 1    
    58   28   97 1    
    59   28   98 1    
    60   29   30 am   BACKBONE|DICT|INTERRES
    61   29   99 1    
    62   30   31 2    
    63   30   32 1    
    64   32   33 1    
    65   32   34 1    
    66   32  100 1    
    67   33  101 1    
    68   33  102 1    
    69   33  103 1    
    70   34   35 am   BACKBONE|DICT|INTERRES
    71   34  104 1    
    72   35   36 2    
    73   37   38 2    
    74   37   39 am   BACKBONE|DICT|INTERRES
    75   39   40 1    
    76   39  105 1    
    77   40   41 1    
    78   40   42 1    
    79   40  106 1    
    80   41  107 1    
    81   41  108 1    
    82   41  109 1    
    83   42   43 2    
    84   42   44 am   BACKBONE|DICT|INTERRES
    85   44   45 1    
    86   44  110 1    
    87   45   46 1    
    88   45   47 1    
    89   45  111 1    
    90   46  112 1    
    91   46  113 1    
    92   46  114 1    
    93   47   48 2    
    94   47   49 am   BACKBONE|DICT|INTERRES
    95   49   50 1    
    96   49  115 1    
    97   50   51 1    
    98   50   52 1    
    99   50  116 1    
   100   51  117 1    
   101   51  118 1    
   102   51  119 1    
   103   52   53 2    
   104   52   54 am   BACKBONE|DICT|INTERRES
   105   54   55 1    
   106   54  120 1    
   107   55   56 1    
   108   55   57 1    
   109   55  121 1    
   110   56  122 1    
   111   56  123 1    
   112   56  124 1    
   113   57   58 2    
   114   57   59 am   BACKBONE|DICT|INTERRES
   115   59   60 1    
   116   59  125 1    
   117   60   61 1    
   118   60   62 1    
   119   60  126 1    
   120   61  127 1    
   121   61  128 1    
   122   61  129 1    
   123   62   63 2    
   124   62   64 am   BACKBONE|DICT|INTERRES
   125   64   65 1    
   126   64  130 1    
   127   65   66 1    
   128   65   69 1    
   129   65  131 1    
   130   66   67 am   BACKBONE|DICT|INTERRES
   131   66   68 2    
   132   67  132 1    
   133   67  133 1    
   134   69   70 1    
   135   69  134 1    
   136   69  135 1    
   137   70   71 1    
   138   71  136 1    
   139   71  137 1    
@<TRIPOS>SUBSTRUCTURE
     1 UNK         1 GROUP             0       ****    0 ROOT    
