@<TRIPOS>MOLECULE
3R137
137   139    1
SMALL
USER_CHARGES


@<TRIPOS>ATOM
      1 CA         25.9250   -7.3521   -3.4794 C.3       0 UNK        -0.2020 
      2 C          26.5636   -6.8009   -4.7529 C.2       0 UNK         0.4855 
      3 O          26.5209   -7.4717   -5.7825 O.2       0 UNK        -0.5197 
      4 N          27.1795   -5.6099   -4.7428 N.am      1 UNK        -0.4892 
      5 CA         27.2782   -4.6507   -3.6329 C.3       1 UNK         0.0835 
      6 C6         28.2370   -3.4816   -3.9758 C.3       12 UNK        -0.0855 
      7 S7         29.9091   -4.0523   -4.4349 S.3       12 UNK        -0.2931 
      8 C8         30.9314   -3.3743   -3.0887 C.3       12 UNK         0.0378 
      9 C9         30.9995   -1.8536   -3.1302 C.ar      12 UNK        -0.0802 
     10 C10        31.6676   -1.2105   -4.1754 C.ar      12 UNK        -0.0944 
     11 C11        31.7472    0.1844   -4.2219 C.ar      12 UNK        -0.0787 
     12 C12        31.1603    0.9385   -3.2026 C.ar      12 UNK        -0.0862 
     13 C13        30.4764    0.3079   -2.1578 C.ar      12 UNK        -0.0733 
     14 C14        30.4036   -1.0882   -2.1238 C.ar      12 UNK        -0.0832 
     15 C15        29.8092    1.1339   -1.0676 C.3       12 UNK         0.0240 
     16 S16        28.5187    2.2355   -1.7290 S.3       12 UNK        -0.2522 
     17 C17        27.3538    1.0602   -2.5075 C.3       12 UNK        -0.0967 
     18 CA         27.4265    1.0080   -4.0579 C.3       5 UNK         0.0660 
     19 N          26.5326   -0.0225   -4.5983 N.am      5 UNK        -0.4015 
     20 C          26.4498   -0.3665   -5.8956 C.2       4 UNK         0.4946 
     21 O          27.2716   -0.0132   -6.7430 O.2       4 UNK        -0.5353 
     22 CA         25.2141   -1.1693   -6.3566 C.3       4 UNK         0.0277 
     23 CB         25.5974   -2.5164   -6.9872 C.3       4 UNK        -0.1981 
     24 N          24.2083   -1.3762   -5.3100 N.am      4 UNK        -0.4209 
     25 C          23.4141   -0.4073   -4.8265 C.2       3 UNK         0.4942 
     26 O          23.4511    0.7563   -5.2279 O.2       3 UNK        -0.5208 
     27 CA         22.4717   -0.7653   -3.6614 C.3       3 UNK         0.0250 
     28 CB         21.0775   -1.1307   -4.1944 C.3       3 UNK        -0.1990 
     29 N          22.9625   -1.8476   -2.8012 N.am      3 UNK        -0.4232 
     30 C          24.1276   -1.8395   -2.1381 C.2       2 UNK         0.4993 
     31 O          24.9178   -0.8956   -2.1662 O.2       2 UNK        -0.5286 
     32 CA         24.5288   -3.1174   -1.3764 C.3       2 UNK         0.0209 
     33 CB         23.4021   -4.1707   -1.2589 C.3       2 UNK        -0.1931 
     34 N          25.7354   -3.7193   -1.9623 N.am      2 UNK        -0.4546 
     35 C          25.8934   -4.0934   -3.2414 C.2       1 UNK         0.5154 
     36 O          25.0103   -3.9921   -4.0980 O.2       1 UNK        -0.5181 
     37 C          27.1301    2.3860   -4.6947 C.2       5 UNK         0.5014 
     38 O          28.0675    3.0932   -5.0644 O.2       5 UNK        -0.5248 
     39 N          25.8399    2.7235   -4.8659 N.am      6 UNK        -0.4434 
     40 CA         25.3929    3.9711   -5.4965 C.3       6 UNK         0.0363 
     41 CB         23.8940    4.1781   -5.2280 C.3       6 UNK        -0.1936 
     42 C          25.6841    4.0178   -7.0068 C.2       6 UNK         0.5081 
     43 O          25.9074    5.1008   -7.5475 O.2       6 UNK        -0.5248 
     44 N          25.7050    2.8441   -7.6531 N.am      7 UNK        -0.4718 
     45 CA         26.1226    2.6671   -9.0467 C.3       7 UNK         0.0273 
     46 CB         25.5124    1.3627   -9.5876 C.3       7 UNK        -0.1935 
     47 C          27.6548    2.6504   -9.2161 C.2       7 UNK         0.5018 
     48 O          28.1270    2.7577  -10.3483 O.2       7 UNK        -0.5186 
     49 N          28.3902    2.4972   -8.1032 N.am      8 UNK        -0.4240 
     50 CA         29.8419    2.3307   -7.9925 C.3       8 UNK         0.0235 
     51 CB         30.5784    3.6309   -8.3772 C.3       8 UNK        -0.2000 
     52 C          30.3517    1.0925   -8.7539 C.2       8 UNK         0.4941 
     53 O          31.3577    1.1759   -9.4615 O.2       8 UNK        -0.5273 
     54 N          29.6409   -0.0349   -8.6027 N.am      9 UNK        -0.4262 
     55 CA         29.9948   -1.3221   -9.2071 C.3       9 UNK         0.0264 
     56 CB         28.8487   -2.3167   -8.9766 C.3       9 UNK        -0.1955 
     57 C          31.3098   -1.8809   -8.6389 C.2       9 UNK         0.5031 
     58 O          31.5815   -1.7020   -7.4532 O.2       9 UNK        -0.5390 
     59 N          32.1022   -2.5448   -9.4903 N.am      10 UNK        -0.4204 
     60 CA         33.4084   -3.1704   -9.2185 C.3       10 UNK         0.0237 
     61 CB         33.3026   -4.2583   -8.1297 C.3       10 UNK        -0.1985 
     62 C          34.5645   -2.1937   -8.9140 C.2       10 UNK         0.4970 
     63 O          35.7010   -2.5049   -9.2739 O.2       10 UNK        -0.4914 
     64 N          34.2810   -1.0480   -8.2819 N.am      11 UNK        -0.4285 
     65 CA         35.2357    0.0431   -8.0282 C.3       11 UNK         0.1007 
     66 C          35.7992    0.6752   -9.3327 C.2       11 UNK         0.5703 
     67 N          37.0221    1.1876   -9.2919 N.am      11 UNK        -0.7361 
     68 O          35.1327    0.7399  -10.3643 O.2       11 UNK        -0.4986 
     69 C69        34.6328    1.1407   -7.1119 C.3       12 UNK        -0.0947 
     70 S70        34.2109    0.5155   -5.4514 S.3       12 UNK        -0.2240 
     71 C71        32.4291    0.8707   -5.3955 C.3       12 UNK         0.0194 
     72 H72        25.7777   -8.4284   -3.5667 H         1 UNK         0.0906 
     73 H73        26.5484   -7.1818   -2.6030 H         1 UNK         0.0906 
     74 H74        24.9489   -6.8969   -3.3134 H         1 UNK         0.0906 
     75 H75        27.6073   -5.2943   -5.6009 H         1 UNK         0.3140 
     76 H76        27.6903   -5.1794   -2.7714 H         1 UNK         0.1085 
     77 H77        28.3080   -2.7891   -3.1356 H         1 UNK         0.0836 
     78 H78        27.8558   -2.8909   -4.8088 H         1 UNK         0.0836 
     79 H79        31.9415   -3.7767   -3.1790 H         1 UNK         0.0731 
     80 H80        30.5468   -3.7264   -2.1303 H         1 UNK         0.0731 
     81 H81        32.1191   -1.7990   -4.9623 H         1 UNK         0.1312 
     82 H82        31.2088    2.0186   -3.2330 H         1 UNK         0.1406 
     83 H83        29.8814   -1.5795   -1.3140 H         1 UNK         0.1631 
     84 H84        30.5661    1.7383   -0.5660 H         1 UNK         0.0717 
     85 H85        29.3692    0.4938   -0.3013 H         1 UNK         0.0717 
     86 H86        27.5287    0.0650   -2.0957 H         1 UNK         0.0934 
     87 H87        26.3480    1.3367   -2.1861 H         1 UNK         0.0934 
     88 H88        28.4428    0.7272   -4.3427 H         1 UNK         0.0739 
     89 H89        25.8351   -0.3782   -3.9528 H         1 UNK         0.3093 
     90 H90        24.7411   -0.5750   -7.1409 H         1 UNK         0.0818 
     91 H91        26.2100   -2.3653   -7.8740 H         1 UNK         0.0819 
     92 H92        24.7144   -3.0719   -7.3030 H         1 UNK         0.0819 
     93 H93        26.1602   -3.1493   -6.3047 H         1 UNK         0.0819 
     94 H94        24.1726   -2.3028   -4.8940 H         1 UNK         0.3041 
     95 H95        22.3773    0.1270   -3.0391 H         1 UNK         0.0784 
     96 H96        20.6767   -0.3308   -4.8190 H         1 UNK         0.0793 
     97 H97        21.1015   -2.0369   -4.8010 H         1 UNK         0.0793 
     98 H98        20.3692   -1.2883   -3.3807 H         1 UNK         0.0793 
     99 H99        22.3945   -2.6811   -2.7525 H         1 UNK         0.3024 
    100 H100       24.7897   -2.7947   -0.3669 H         1 UNK         0.1171 
    101 H101       23.7231   -5.0139   -0.6471 H         1 UNK         0.0786 
    102 H102       22.5171   -3.7514   -0.7779 H         1 UNK         0.0786 
    103 H103       23.0996   -4.5700   -2.2277 H         1 UNK         0.0786 
    104 H104       26.5225   -3.8014   -1.3334 H         1 UNK         0.2977 
    105 H105       25.1130    2.0684   -4.6022 H         1 UNK         0.3127 
    106 H106       25.9378    4.7957   -5.0316 H         1 UNK         0.0770 
    107 H107       23.2880    3.3970   -5.6882 H         1 UNK         0.0814 
    108 H108       23.5553    5.1322   -5.6341 H         1 UNK         0.0814 
    109 H109       23.6778    4.1864   -4.1596 H         1 UNK         0.0814 
    110 H110       25.4994    2.0063   -7.1286 H         1 UNK         0.2983 
    111 H111       25.7353    3.4992   -9.6392 H         1 UNK         0.0947 
    112 H112       25.7295    1.2449  -10.6501 H         1 UNK         0.0806 
    113 H113       24.4279    1.3521   -9.4768 H         1 UNK         0.0806 
    114 H114       25.9140    0.4859   -9.0788 H         1 UNK         0.0806 
    115 H115       27.8891    2.4149   -7.2278 H         1 UNK         0.3000 
    116 H116       30.0414    2.1402   -6.9369 H         1 UNK         0.0850 
    117 H117       31.6486    3.5438   -8.1851 H         1 UNK         0.0810 
    118 H118       30.2130    4.4783   -7.7971 H         1 UNK         0.0810 
    119 H119       30.4558    3.8683   -9.4343 H         1 UNK         0.0810 
    120 H120       28.8406   -0.0275   -7.9753 H         1 UNK         0.3040 
    121 H121       30.1122   -1.1654  -10.2814 H         1 UNK         0.0766 
    122 H122       27.9246   -1.9603   -9.4313 H         1 UNK         0.0812 
    123 H123       28.6678   -2.4754   -7.9122 H         1 UNK         0.0812 
    124 H124       29.0742   -3.2881   -9.4184 H         1 UNK         0.0812 
    125 H125       31.7980   -2.6096  -10.4524 H         1 UNK         0.3205 
    126 H126       33.6796   -3.6739  -10.1479 H         1 UNK         0.0754 
    127 H127       34.2436   -4.8010   -8.0308 H         1 UNK         0.0769 
    128 H128       32.5308   -4.9889   -8.3720 H         1 UNK         0.0769 
    129 H129       33.0703   -3.8378   -7.1507 H         1 UNK         0.0769 
    130 H130       33.3267   -0.9035   -7.9710 H         1 UNK         0.2981 
    131 H131       36.0805   -0.4046   -7.5008 H         1 UNK         0.0541 
    132 H132       37.4018    1.6144  -10.1225 H         1 UNK         0.3459 
    133 H133       37.5755    1.1518   -8.4497 H         1 UNK         0.3459 
    134 H134       35.3448    1.9560   -6.9714 H         1 UNK         0.0612 
    135 H135       33.7533    1.5859   -7.5815 H         1 UNK         0.0612 
    136 H136       32.2854    1.9515   -5.3539 H         1 UNK         0.0624 
    137 H137       31.9612    0.5347   -6.3187 H         1 UNK         0.0624 
@<TRIPOS>BOND
     1    1    2 1    
     2    1   72 1    
     3    1   73 1    
     4    1   74 1    
     5    2    3 2    
     6    2    4 am   BACKBONE|DICT|INTERRES
     7    4    5 1    
     8    4   75 1    
     9    5    6 1    
    10    5   35 1    
    11    5   76 1    
    12    6    7 1    
    13    6   77 1    
    14    6   78 1    
    15    7    8 1    
    16    8    9 1    
    17    8   79 1    
    18    8   80 1    
    19    9   10 ar   
    20    9   14 ar   
    21   10   11 ar   
    22   10   81 1    
    23   11   12 ar   
    24   11   71 1    
    25   12   13 ar   
    26   12   82 1    
    27   13   14 ar   
    28   13   15 1    
    29   14   83 1    
    30   15   16 1    
    31   15   84 1    
    32   15   85 1    
    33   16   17 1    
    34   17   18 1    
    35   17   86 1    
    36   17   87 1    
    37   18   19 1    
    38   18   37 1    
    39   18   88 1    
    40   19   20 am   BACKBONE|DICT|INTERRES
    41   19   89 1    
    42   20   21 2    
    43   20   22 1    
    44   22   23 1    
    45   22   24 1    
    46   22   90 1    
    47   23   91 1    
    48   23   92 1    
    49   23   93 1    
    50   24   25 am   BACKBONE|DICT|INTERRES
    51   24   94 1    
    52   25   26 2    
    53   25   27 1    
    54   27   28 1    
    55   27   29 1    
    56   27   95 1    
    57   28   96 1    
    58   28   97 1    
    59   28   98 1    
    60   29   30 am   BACKBONE|DICT|INTERRES
    61   29   99 1    
    62   30   31 2    
    63   30   32 1    
    64   32   33 1    
    65   32   34 1    
    66   32  100 1    
    67   33  101 1    
    68   33  102 1    
    69   33  103 1    
    70   34   35 am   BACKBONE|DICT|INTERRES
    71   34  104 1    
    72   35   36 2    
    73   37   38 2    
    74   37   39 am   BACKBONE|DICT|INTERRES
    75   39   40 1    
    76   39  105 1    
    77   40   41 1    
    78   40   42 1    
    79   40  106 1    
    80   41  107 1    
    81   41  108 1    
    82   41  109 1    
    83   42   43 2    
    84   42   44 am   BACKBONE|DICT|INTERRES
    85   44   45 1    
    86   44  110 1    
    87   45   46 1    
    88   45   47 1    
    89   45  111 1    
    90   46  112 1    
    91   46  113 1    
    92   46  114 1    
    93   47   48 2    
    94   47   49 am   BACKBONE|DICT|INTERRES
    95   49   50 1    
    96   49  115 1    
    97   50   51 1    
    98   50   52 1    
    99   50  116 1    
   100   51  117 1    
   101   51  118 1    
   102   51  119 1    
   103   52   53 2    
   104   52   54 am   BACKBONE|DICT|INTERRES
   105   54   55 1    
   106   54  120 1    
   107   55   56 1    
   108   55   57 1    
   109   55  121 1    
   110   56  122 1    
   111   56  123 1    
   112   56  124 1    
   113   57   58 2    
   114   57   59 am   BACKBONE|DICT|INTERRES
   115   59   60 1    
   116   59  125 1    
   117   60   61 1    
   118   60   62 1    
   119   60  126 1    
   120   61  127 1    
   121   61  128 1    
   122   61  129 1    
   123   62   63 2    
   124   62   64 am   BACKBONE|DICT|INTERRES
   125   64   65 1    
   126   64  130 1    
   127   65   66 1    
   128   65   69 1    
   129   65  131 1    
   130   66   67 am   BACKBONE|DICT|INTERRES
   131   66   68 2    
   132   67  132 1    
   133   67  133 1    
   134   69   70 1    
   135   69  134 1    
   136   69  135 1    
   137   70   71 1    
   138   71  136 1    
   139   71  137 1    
@<TRIPOS>SUBSTRUCTURE
     1 UNK         1 GROUP             0       ****    0 ROOT    
