@<TRIPOS>MOLECULE
3R137
137   139    1
SMALL
USER_CHARGES


@<TRIPOS>ATOM
      1 CA         27.8384   -4.8319    1.5554 C.3       0 UNK        -0.2020 
      2 C          27.7098   -3.7999    0.4459 C.2       0 UNK         0.4855 
      3 O          27.4068   -4.1641   -0.6903 O.2       0 UNK        -0.5197 
      4 N          27.9396   -2.5189    0.7691 N.am      1 UNK        -0.4892 
      5 CA         27.8828   -1.3305   -0.1016 C.3       1 UNK         0.0835 
      6 C6         28.8528   -1.3731   -1.3137 C.3       12 UNK        -0.0855 
      7 S7         30.6094   -1.4672   -0.8128 S.3       12 UNK        -0.2931 
      8 C8         31.0478   -3.2109   -1.1265 C.3       12 UNK         0.0378 
      9 C9         31.1329   -3.5262   -2.6127 C.ar      12 UNK        -0.0802 
     10 C10        32.3074   -3.2651   -3.3244 C.ar      12 UNK        -0.0944 
     11 C11        32.3853   -3.5483   -4.6913 C.ar      12 UNK        -0.0787 
     12 C12        31.2674   -4.0681   -5.3519 C.ar      12 UNK        -0.0862 
     13 C13        30.0845   -4.3316   -4.6526 C.ar      12 UNK        -0.0733 
     14 C14        30.0389   -4.0885   -3.2755 C.ar      12 UNK        -0.0832 
     15 C15        28.8638   -4.8664   -5.4009 C.3       12 UNK         0.0240 
     16 S16        27.2741   -4.1453   -4.8528 S.3       12 UNK        -0.2522 
     17 C17        27.5776   -2.3558   -5.0414 C.3       12 UNK        -0.0967 
     18 CA         26.8386   -1.7464   -6.2544 C.3       5 UNK         0.0660 
     19 N          25.3841   -1.8695   -6.1629 N.am      5 UNK        -0.4015 
     20 C          24.5534   -1.8286   -7.2140 C.2       4 UNK         0.4946 
     21 O          24.9294   -1.7839   -8.3857 O.2       4 UNK        -0.5353 
     22 CA         23.0432   -1.8194   -6.9139 C.3       4 UNK         0.0277 
     23 CB         22.4913   -3.2540   -6.8939 C.3       4 UNK        -0.1981 
     24 N          22.7037   -1.1508   -5.6549 N.am      4 UNK        -0.4209 
     25 C          22.8828    0.1559   -5.4121 C.2       3 UNK         0.4942 
     26 O          23.3135    0.9554   -6.2423 O.2       3 UNK        -0.5208 
     27 CA         22.5844    0.6397   -3.9815 C.3       3 UNK         0.0250 
     28 CB         21.0982    1.0029   -3.8356 C.3       3 UNK        -0.1990 
     29 N          22.9628   -0.3202   -2.9359 N.am      3 UNK        -0.4232 
     30 C          24.1945   -0.8194   -2.7577 C.2       2 UNK         0.4993 
     31 O          25.1504   -0.5577   -3.4918 O.2       2 UNK        -0.5286 
     32 CA         24.3584   -1.8384   -1.6186 C.3       2 UNK         0.0209 
     33 CB         23.9058   -3.2305   -2.0905 C.3       2 UNK        -0.1931 
     34 N          25.7375   -1.9424   -1.1381 N.am      2 UNK        -0.4546 
     35 C          26.4434   -0.9770   -0.5372 C.2       1 UNK         0.5154 
     36 O          25.9929    0.1420   -0.2856 O.2       1 UNK        -0.5181 
     37 C          27.2261   -0.2696   -6.4274 C.2       5 UNK         0.5014 
     38 O          28.0165    0.0413   -7.3154 O.2       5 UNK        -0.5248 
     39 N          26.6493    0.6141   -5.5970 N.am      6 UNK        -0.4434 
     40 CA         26.8961    2.0610   -5.5921 C.3       6 UNK         0.0363 
     41 CB         26.0797    2.7177   -4.4691 C.3       6 UNK        -0.1936 
     42 C          26.6071    2.7469   -6.9399 C.2       6 UNK         0.5081 
     43 O          27.3340    3.6639   -7.3224 O.2       6 UNK        -0.5248 
     44 N          25.5802    2.2641   -7.6520 N.am      7 UNK        -0.4718 
     45 CA         25.1968    2.7045   -8.9957 C.3       7 UNK         0.0273 
     46 CB         23.8366    2.0798   -9.3487 C.3       7 UNK        -0.1935 
     47 C          26.2277    2.3919  -10.0999 C.2       7 UNK         0.5018 
     48 O          26.1341    2.9855  -11.1754 O.2       7 UNK        -0.5186 
     49 N          27.1746    1.4794   -9.8431 N.am      8 UNK        -0.4240 
     50 CA         28.2049    1.0527  -10.7905 C.3       8 UNK         0.0235 
     51 CB         27.7117   -0.1873  -11.5619 C.3       8 UNK        -0.2000 
     52 C          29.5313    0.8158  -10.0533 C.2       8 UNK         0.4941 
     53 O          30.1945   -0.1983  -10.2843 O.2       8 UNK        -0.5273 
     54 N          29.8949    1.7492   -9.1618 N.am      9 UNK        -0.4262 
     55 CA         31.0401    1.6682   -8.2484 C.3       9 UNK         0.0264 
     56 CB         30.8310    2.6711   -7.0994 C.3       9 UNK        -0.1955 
     57 C          32.4070    1.8475   -8.9403 C.2       9 UNK         0.5031 
     58 O          33.2029    2.6947   -8.5294 O.2       9 UNK        -0.5390 
     59 N          32.6780    1.0245   -9.9609 N.am      10 UNK        -0.4204 
     60 CA         33.9412    0.9707  -10.7068 C.3       10 UNK         0.0237 
     61 CB         33.7891    0.0008  -11.8893 C.3       10 UNK        -0.1985 
     62 C          35.1530    0.5819   -9.8386 C.2       10 UNK         0.4970 
     63 O          36.2761    0.9717  -10.1597 O.2       10 UNK        -0.4914 
     64 N          34.8980   -0.1537   -8.7497 N.am      11 UNK        -0.4285 
     65 CA         35.8606   -0.4641   -7.6862 C.3       11 UNK         0.1007 
     66 C          36.2060    0.7282   -6.7428 C.2       11 UNK         0.5703 
     67 N          35.5420    1.8763   -6.8296 N.am      11 UNK        -0.7361 
     68 O          37.1136    0.6130   -5.9223 O.2       11 UNK        -0.4986 
     69 C69        35.4402   -1.7371   -6.9044 C.3       12 UNK        -0.0947 
     70 S70        33.7812   -1.6426   -6.1447 S.3       12 UNK        -0.2240 
     71 C71        33.6851   -3.3179   -5.4471 C.3       12 UNK         0.0194 
     72 H72        28.5970   -5.5691    1.2936 H         1 UNK         0.0906 
     73 H73        26.8912   -5.3525    1.6939 H         1 UNK         0.0906 
     74 H74        28.1195   -4.3791    2.5059 H         1 UNK         0.0906 
     75 H75        28.1656   -2.3077    1.7317 H         1 UNK         0.3140 
     76 H76        28.2060   -0.5009    0.5301 H         1 UNK         0.1085 
     77 H77        28.7431   -0.4663   -1.9120 H         1 UNK         0.0836 
     78 H78        28.6012   -2.1928   -1.9834 H         1 UNK         0.0836 
     79 H79        32.0115   -3.4158   -0.6578 H         1 UNK         0.0731 
     80 H80        30.3330   -3.8701   -0.6354 H         1 UNK         0.0731 
     81 H81        33.1628   -2.8449   -2.8128 H         1 UNK         0.1312 
     82 H82        31.3220   -4.2690   -6.4134 H         1 UNK         0.1406 
     83 H83        29.1353   -4.3087   -2.7230 H         1 UNK         0.1631 
     84 H84        28.8206   -5.9485   -5.2725 H         1 UNK         0.0717 
     85 H85        28.9657   -4.6845   -6.4720 H         1 UNK         0.0717 
     86 H86        27.2751   -1.8700   -4.1131 H         1 UNK         0.0934 
     87 H87        28.6493   -2.1711   -5.1297 H         1 UNK         0.0934 
     88 H88        27.1749   -2.2784   -7.1475 H         1 UNK         0.0739 
     89 H89        24.9989   -1.8491   -5.2283 H         1 UNK         0.3093 
     90 H90        22.5529   -1.2736   -7.7231 H         1 UNK         0.0818 
     91 H91        22.7086   -3.7676   -7.8316 H         1 UNK         0.0819 
     92 H92        22.9302   -3.8461   -6.0896 H         1 UNK         0.0819 
     93 H93        21.4086   -3.2620   -6.7665 H         1 UNK         0.0819 
     94 H94        22.3370   -1.7290   -4.9132 H         1 UNK         0.3041 
     95 H95        23.1694    1.5449   -3.8134 H         1 UNK         0.0784 
     96 H96        20.7992    1.7311   -4.5911 H         1 UNK         0.0793 
     97 H97        20.4537    0.1305   -3.9510 H         1 UNK         0.0793 
     98 H98        20.8915    1.4477   -2.8619 H         1 UNK         0.0793 
     99 H99        22.2292   -0.6008   -2.3005 H         1 UNK         0.3024 
    100 H100       23.7365   -1.5213   -0.7787 H         1 UNK         0.1171 
    101 H101       24.5134   -3.5896   -2.9229 H         1 UNK         0.0786 
    102 H102       23.9784   -3.9635   -1.2866 H         1 UNK         0.0786 
    103 H103       22.8670   -3.2207   -2.4228 H         1 UNK         0.0786 
    104 H104       26.2045   -2.8381   -1.2585 H         1 UNK         0.2977 
    105 H105       26.0284    0.2571   -4.8716 H         1 UNK         0.3127 
    106 H106       27.9533    2.2028   -5.3652 H         1 UNK         0.0770 
    107 H107       26.3355    3.7734   -4.3703 H         1 UNK         0.0814 
    108 H108       25.0101    2.6616   -4.6686 H         1 UNK         0.0814 
    109 H109       26.2692    2.2445   -3.5052 H         1 UNK         0.0814 
    110 H110       24.9890    1.5591   -7.2213 H         1 UNK         0.2983 
    111 H111       25.0797    3.7898   -8.9680 H         1 UNK         0.0947 
    112 H112       23.8835    0.9897   -9.3462 H         1 UNK         0.0806 
    113 H113       23.5038    2.3919  -10.3396 H         1 UNK         0.0806 
    114 H114       23.0655    2.3827   -8.6400 H         1 UNK         0.0806 
    115 H115       27.2222    1.0533   -8.9212 H         1 UNK         0.3000 
    116 H116       28.3995    1.8498  -11.5111 H         1 UNK         0.0850 
    117 H117       28.4508   -0.5157  -12.2938 H         1 UNK         0.0810 
    118 H118       26.7910    0.0242  -12.1057 H         1 UNK         0.0810 
    119 H119       27.5190   -1.0243  -10.8894 H         1 UNK         0.0810 
    120 H120       29.2899    2.5499   -9.0429 H         1 UNK         0.3040 
    121 H121       31.0426    0.6684   -7.8083 H         1 UNK         0.0766 
    122 H122       31.6372    2.6057   -6.3674 H         1 UNK         0.0812 
    123 H123       29.9019    2.4711   -6.5690 H         1 UNK         0.0812 
    124 H124       30.7973    3.6995   -7.4611 H         1 UNK         0.0812 
    125 H125       31.9399    0.3765  -10.2340 H         1 UNK         0.3205 
    126 H126       34.1327    1.9701  -11.1028 H         1 UNK         0.0754 
    127 H127       34.7049   -0.0421  -12.4807 H         1 UNK         0.0769 
    128 H128       32.9871    0.3139  -12.5583 H         1 UNK         0.0769 
    129 H129       33.5687   -1.0134  -11.5534 H         1 UNK         0.0769 
    130 H130       33.9449   -0.4272   -8.5643 H         1 UNK         0.2981 
    131 H131       36.8032   -0.7069   -8.1803 H         1 UNK         0.0541 
    132 H132       35.7932    2.6307   -6.2114 H         1 UNK         0.3459 
    133 H133       34.7922    2.0090   -7.4992 H         1 UNK         0.3459 
    134 H134       36.1709   -1.9711   -6.1279 H         1 UNK         0.0612 
    135 H135       35.4492   -2.5912   -7.5833 H         1 UNK         0.0612 
    136 H136       34.5345   -3.4790   -4.7813 H         1 UNK         0.0624 
    137 H137       33.7829   -4.0485   -6.2517 H         1 UNK         0.0624 
@<TRIPOS>BOND
     1    1    2 1    
     2    1   72 1    
     3    1   73 1    
     4    1   74 1    
     5    2    3 2    
     6    2    4 am   BACKBONE|DICT|INTERRES
     7    4    5 1    
     8    4   75 1    
     9    5    6 1    
    10    5   35 1    
    11    5   76 1    
    12    6    7 1    
    13    6   77 1    
    14    6   78 1    
    15    7    8 1    
    16    8    9 1    
    17    8   79 1    
    18    8   80 1    
    19    9   10 ar   
    20    9   14 ar   
    21   10   11 ar   
    22   10   81 1    
    23   11   12 ar   
    24   11   71 1    
    25   12   13 ar   
    26   12   82 1    
    27   13   14 ar   
    28   13   15 1    
    29   14   83 1    
    30   15   16 1    
    31   15   84 1    
    32   15   85 1    
    33   16   17 1    
    34   17   18 1    
    35   17   86 1    
    36   17   87 1    
    37   18   19 1    
    38   18   37 1    
    39   18   88 1    
    40   19   20 am   BACKBONE|DICT|INTERRES
    41   19   89 1    
    42   20   21 2    
    43   20   22 1    
    44   22   23 1    
    45   22   24 1    
    46   22   90 1    
    47   23   91 1    
    48   23   92 1    
    49   23   93 1    
    50   24   25 am   BACKBONE|DICT|INTERRES
    51   24   94 1    
    52   25   26 2    
    53   25   27 1    
    54   27   28 1    
    55   27   29 1    
    56   27   95 1    
    57   28   96 1    
    58   28   97 1    
    59   28   98 1    
    60   29   30 am   BACKBONE|DICT|INTERRES
    61   29   99 1    
    62   30   31 2    
    63   30   32 1    
    64   32   33 1    
    65   32   34 1    
    66   32  100 1    
    67   33  101 1    
    68   33  102 1    
    69   33  103 1    
    70   34   35 am   BACKBONE|DICT|INTERRES
    71   34  104 1    
    72   35   36 2    
    73   37   38 2    
    74   37   39 am   BACKBONE|DICT|INTERRES
    75   39   40 1    
    76   39  105 1    
    77   40   41 1    
    78   40   42 1    
    79   40  106 1    
    80   41  107 1    
    81   41  108 1    
    82   41  109 1    
    83   42   43 2    
    84   42   44 am   BACKBONE|DICT|INTERRES
    85   44   45 1    
    86   44  110 1    
    87   45   46 1    
    88   45   47 1    
    89   45  111 1    
    90   46  112 1    
    91   46  113 1    
    92   46  114 1    
    93   47   48 2    
    94   47   49 am   BACKBONE|DICT|INTERRES
    95   49   50 1    
    96   49  115 1    
    97   50   51 1    
    98   50   52 1    
    99   50  116 1    
   100   51  117 1    
   101   51  118 1    
   102   51  119 1    
   103   52   53 2    
   104   52   54 am   BACKBONE|DICT|INTERRES
   105   54   55 1    
   106   54  120 1    
   107   55   56 1    
   108   55   57 1    
   109   55  121 1    
   110   56  122 1    
   111   56  123 1    
   112   56  124 1    
   113   57   58 2    
   114   57   59 am   BACKBONE|DICT|INTERRES
   115   59   60 1    
   116   59  125 1    
   117   60   61 1    
   118   60   62 1    
   119   60  126 1    
   120   61  127 1    
   121   61  128 1    
   122   61  129 1    
   123   62   63 2    
   124   62   64 am   BACKBONE|DICT|INTERRES
   125   64   65 1    
   126   64  130 1    
   127   65   66 1    
   128   65   69 1    
   129   65  131 1    
   130   66   67 am   BACKBONE|DICT|INTERRES
   131   66   68 2    
   132   67  132 1    
   133   67  133 1    
   134   69   70 1    
   135   69  134 1    
   136   69  135 1    
   137   70   71 1    
   138   71  136 1    
   139   71  137 1    
@<TRIPOS>SUBSTRUCTURE
     1 UNK         1 GROUP             0       ****    0 ROOT    
