@<TRIPOS>MOLECULE
3R137
137   139    1
SMALL
USER_CHARGES


@<TRIPOS>ATOM
      1 CA         27.8744   -6.5953   -3.5922 C.3       0 UNK        -0.2020 
      2 C          27.6668   -6.3137   -2.1141 C.2       0 UNK         0.4855 
      3 O          26.7349   -6.8480   -1.5125 O.2       0 UNK        -0.5197 
      4 N          28.5372   -5.4867   -1.5208 N.am      1 UNK        -0.4892 
      5 CA         28.5092   -5.1340   -0.0934 C.3       1 UNK         0.0835 
      6 C6         29.8583   -4.5580    0.4202 C.3       12 UNK        -0.0855 
      7 S7         31.3310   -5.4409   -0.2179 S.3       12 UNK        -0.2931 
      8 C8         32.2379   -4.1330   -1.1171 C.3       12 UNK         0.0378 
      9 C9         31.3655   -3.3933   -2.1241 C.ar      12 UNK        -0.0802 
     10 C10        30.9454   -2.0870   -1.8532 C.ar      12 UNK        -0.0944 
     11 C11        30.1064   -1.4158   -2.7427 C.ar      12 UNK        -0.0787 
     12 C12        29.6889   -2.0587   -3.9063 C.ar      12 UNK        -0.0862 
     13 C13        30.1301   -3.3497   -4.2201 C.ar      12 UNK        -0.0733 
     14 C14        30.9763   -4.0084   -3.3195 C.ar      12 UNK        -0.0832 
     15 C15        29.7444   -4.0422   -5.5296 C.3       12 UNK         0.0240 
     16 S16        28.0928   -3.6054   -6.1825 S.3       12 UNK        -0.2522 
     17 C17        28.5124   -2.1183   -7.1528 C.3       12 UNK        -0.0967 
     18 CA         27.3230   -1.1978   -7.5408 C.3       5 UNK         0.0660 
     19 N          26.2373   -1.1496   -6.5515 N.am      5 UNK        -0.4015 
     20 C          24.9941   -0.7334   -6.8390 C.2       4 UNK         0.4946 
     21 O          24.6539   -0.3284   -7.9517 O.2       4 UNK        -0.5353 
     22 CA         23.9551   -0.7355   -5.7021 C.3       4 UNK         0.0277 
     23 CB         23.2508   -2.0998   -5.6284 C.3       4 UNK        -0.1981 
     24 N          24.4715   -0.3890   -4.3734 N.am      4 UNK        -0.4209 
     25 C          25.2030    0.6899   -4.0603 C.2       3 UNK         0.4942 
     26 O          25.5946    1.5072   -4.8917 O.2       3 UNK        -0.5208 
     27 CA         25.5713    0.9111   -2.5797 C.3       3 UNK         0.0250 
     28 CB         24.7689    2.0913   -2.0072 C.3       3 UNK        -0.1990 
     29 N          25.4088   -0.2477   -1.6908 N.am      3 UNK        -0.4232 
     30 C          26.0308   -1.4264   -1.8185 C.2       2 UNK         0.4993 
     31 O          26.7346   -1.7298   -2.7829 O.2       2 UNK        -0.5286 
     32 CA         25.8017   -2.4463   -0.6988 C.3       2 UNK         0.0209 
     33 CB         24.4403   -3.1457   -0.8564 C.3       2 UNK        -0.1931 
     34 N          26.8717   -3.4325   -0.7669 N.am      2 UNK        -0.4546 
     35 C          27.3483   -4.1715    0.2414 C.2       1 UNK         0.5154 
     36 O          26.9151   -4.1158    1.3934 O.2       1 UNK        -0.5181 
     37 C          27.8510    0.2034   -7.9223 C.2       5 UNK         0.5014 
     38 O          28.5013    0.3324   -8.9624 O.2       5 UNK        -0.5248 
     39 N          27.5891    1.2315   -7.0958 N.am      6 UNK        -0.4434 
     40 CA         28.0372    2.6104   -7.3237 C.3       6 UNK         0.0363 
     41 CB         27.7925    3.4634   -6.0700 C.3       6 UNK        -0.1936 
     42 C          27.3918    3.2640   -8.5569 C.2       6 UNK         0.5081 
     43 O          27.9936    4.1679   -9.1341 O.2       6 UNK        -0.5248 
     44 N          26.2298    2.7544   -8.9919 N.am      7 UNK        -0.4718 
     45 CA         25.5719    3.1233  -10.2503 C.3       7 UNK         0.0273 
     46 CB         24.1926    2.4491  -10.3117 C.3       7 UNK        -0.1935 
     47 C          26.4005    2.7728  -11.5029 C.2       7 UNK         0.5018 
     48 O          26.2462    3.4347  -12.5295 O.2       7 UNK        -0.5186 
     49 N          27.2762    1.7649  -11.3866 N.am      8 UNK        -0.4240 
     50 CA         28.2555    1.3668  -12.3995 C.3       8 UNK         0.0235 
     51 CB         28.1849   -0.1627  -12.5620 C.3       8 UNK        -0.2000 
     52 C          29.6836    1.8090  -12.0220 C.2       8 UNK         0.4941 
     53 O          30.6278    1.4111  -12.7043 O.2       8 UNK        -0.5273 
     54 N          29.8285    2.5773  -10.9283 N.am      9 UNK        -0.4262 
     55 CA         31.0737    3.0052  -10.2728 C.3       9 UNK         0.0264 
     56 CB         31.9035    3.9174  -11.1997 C.3       9 UNK        -0.1955 
     57 C          31.9172    1.8521   -9.6862 C.2       9 UNK         0.5031 
     58 O          33.0575    2.0831   -9.2805 O.2       9 UNK        -0.5390 
     59 N          31.3508    0.6403   -9.6075 N.am      10 UNK        -0.4204 
     60 CA         32.0326   -0.5832   -9.1767 C.3       10 UNK         0.0237 
     61 CB         31.3053   -1.8006   -9.7715 C.3       10 UNK        -0.1985 
     62 C          32.2266   -0.6931   -7.6527 C.2       10 UNK         0.4970 
     63 O          32.9879   -1.5538   -7.2107 O.2       10 UNK        -0.4914 
     64 N          31.5839    0.1960   -6.8828 N.am      11 UNK        -0.4285 
     65 CA         31.9101    0.4566   -5.4717 C.3       11 UNK         0.1007 
     66 C          33.2891    1.1686   -5.2836 C.2       11 UNK         0.5703 
     67 N          33.8555    1.8144   -6.2996 N.am      11 UNK        -0.7361 
     68 O          33.8763    1.1112   -4.2065 O.2       11 UNK        -0.4986 
     69 C69        30.7442    1.2145   -4.7767 C.3       12 UNK        -0.0947 
     70 S70        30.8459    1.2505   -2.9507 S.3       12 UNK        -0.2240 
     71 C71        29.6286   -0.0033   -2.4454 C.3       12 UNK         0.0194 
     72 H72        28.9352   -6.6371   -3.8360 H         1 UNK         0.0906 
     73 H73        27.4018   -5.8189   -4.1935 H         1 UNK         0.0906 
     74 H74        27.4329   -7.5545   -3.8654 H         1 UNK         0.0906 
     75 H75        29.2933   -5.0751   -2.0510 H         1 UNK         0.3140 
     76 H76        28.3188   -6.0557    0.4613 H         1 UNK         0.1085 
     77 H77        29.8849   -4.6154    1.5098 H         1 UNK         0.0836 
     78 H78        29.9404   -3.4957    0.1933 H         1 UNK         0.0836 
     79 H79        32.6607   -3.4365   -0.3913 H         1 UNK         0.0731 
     80 H80        33.0866   -4.5823   -1.6345 H         1 UNK         0.0731 
     81 H81        31.2572   -1.5951   -0.9420 H         1 UNK         0.1312 
     82 H82        29.0080   -1.5314   -4.5525 H         1 UNK         0.1406 
     83 H83        31.3291   -5.0070   -3.5414 H         1 UNK         0.1631 
     84 H84        29.7709   -5.1234   -5.3976 H         1 UNK         0.0717 
     85 H85        30.5026   -3.8163   -6.2811 H         1 UNK         0.0717 
     86 H86        29.2986   -1.5625   -6.6429 H         1 UNK         0.0934 
     87 H87        28.9814   -2.4841   -8.0642 H         1 UNK         0.0934 
     88 H88        26.8909   -1.6163   -8.4528 H         1 UNK         0.0739 
     89 H89        26.4458   -1.4851   -5.6205 H         1 UNK         0.3093 
     90 H90        23.2080    0.0195   -5.9548 H         1 UNK         0.0818 
     91 H91        22.8366   -2.3792   -6.5983 H         1 UNK         0.0819 
     92 H92        23.9373   -2.8921   -5.3266 H         1 UNK         0.0819 
     93 H93        22.4232   -2.0835   -4.9190 H         1 UNK         0.0819 
     94 H94        24.2255   -1.0132   -3.6197 H         1 UNK         0.3041 
     95 H95        26.6262    1.1877   -2.5609 H         1 UNK         0.0784 
     96 H96        24.8936    2.9851   -2.6206 H         1 UNK         0.0793 
     97 H97        23.7015    1.8712   -1.9668 H         1 UNK         0.0793 
     98 H98        25.0993    2.3470   -1.0004 H         1 UNK         0.0793 
     99 H99        24.8233   -0.1017   -0.8818 H         1 UNK         0.3024 
    100 H100       25.8487   -1.9284    0.2612 H         1 UNK         0.1171 
    101 H101       23.6191   -2.4299   -0.8075 H         1 UNK         0.0786 
    102 H102       24.3654   -3.6671   -1.8109 H         1 UNK         0.0786 
    103 H103       24.2773   -3.8772   -0.0651 H         1 UNK         0.0786 
    104 H104       27.3192   -3.4888   -1.6744 H         1 UNK         0.2977 
    105 H105       26.9905    1.0856   -6.2877 H         1 UNK         0.3127 
    106 H106       29.1140    2.5783   -7.5002 H         1 UNK         0.0770 
    107 H107       26.7290    3.6302   -5.8966 H         1 UNK         0.0814 
    108 H108       28.2586    4.4439   -6.1727 H         1 UNK         0.0814 
    109 H109       28.2089    2.9974   -5.1771 H         1 UNK         0.0814 
    110 H110       25.8054    2.0060   -8.4597 H         1 UNK         0.2983 
    111 H111       25.4285    4.2059  -10.2481 H         1 UNK         0.0947 
    112 H112       24.2740    1.3615  -10.2933 H         1 UNK         0.0806 
    113 H113       23.6642    2.7221  -11.2260 H         1 UNK         0.0806 
    114 H114       23.5650    2.7513   -9.4734 H         1 UNK         0.0806 
    115 H115       27.3458    1.2838  -10.4969 H         1 UNK         0.3000 
    116 H116       28.0192    1.8270  -13.3611 H         1 UNK         0.0850 
    117 H117       28.8623   -0.5083  -13.3438 H         1 UNK         0.0810 
    118 H118       27.1819   -0.4847  -12.8415 H         1 UNK         0.0810 
    119 H119       28.4581   -0.6797  -11.6411 H         1 UNK         0.0810 
    120 H120       28.9846    2.8975  -10.4670 H         1 UNK         0.3040 
    121 H121       30.7648    3.6076   -9.4177 H         1 UNK         0.0766 
    122 H122       32.3142    3.3694  -12.0478 H         1 UNK         0.0812 
    123 H123       32.7444    4.3592  -10.6640 H         1 UNK         0.0812 
    124 H124       31.3027    4.7393  -11.5890 H         1 UNK         0.0812 
    125 H125       30.3711    0.5492   -9.8542 H         1 UNK         0.3205 
    126 H126       33.0399   -0.5730   -9.5989 H         1 UNK         0.0754 
    127 H127       31.6153   -2.7328   -9.2968 H         1 UNK         0.0769 
    128 H128       31.5233   -1.8947  -10.8356 H         1 UNK         0.0769 
    129 H129       30.2252   -1.7159   -9.6757 H         1 UNK         0.0769 
    130 H130       30.9848    0.8674   -7.3363 H         1 UNK         0.2981 
    131 H131       32.0013   -0.5158   -4.9836 H         1 UNK         0.0541 
    132 H132       34.7500    2.2544   -6.1540 H         1 UNK         0.3459 
    133 H133       33.4286    1.8502   -7.2169 H         1 UNK         0.3459 
    134 H134       29.7894    0.7671   -5.0555 H         1 UNK         0.0612 
    135 H135       30.7000    2.2448   -5.1336 H         1 UNK         0.0612 
    136 H136       29.4349    0.1001   -1.3770 H         1 UNK         0.0624 
    137 H137       28.6821    0.1945   -2.9478 H         1 UNK         0.0624 
@<TRIPOS>BOND
     1    1    2 1    
     2    1   72 1    
     3    1   73 1    
     4    1   74 1    
     5    2    3 2    
     6    2    4 am   BACKBONE|DICT|INTERRES
     7    4    5 1    
     8    4   75 1    
     9    5    6 1    
    10    5   35 1    
    11    5   76 1    
    12    6    7 1    
    13    6   77 1    
    14    6   78 1    
    15    7    8 1    
    16    8    9 1    
    17    8   79 1    
    18    8   80 1    
    19    9   10 ar   
    20    9   14 ar   
    21   10   11 ar   
    22   10   81 1    
    23   11   12 ar   
    24   11   71 1    
    25   12   13 ar   
    26   12   82 1    
    27   13   14 ar   
    28   13   15 1    
    29   14   83 1    
    30   15   16 1    
    31   15   84 1    
    32   15   85 1    
    33   16   17 1    
    34   17   18 1    
    35   17   86 1    
    36   17   87 1    
    37   18   19 1    
    38   18   37 1    
    39   18   88 1    
    40   19   20 am   BACKBONE|DICT|INTERRES
    41   19   89 1    
    42   20   21 2    
    43   20   22 1    
    44   22   23 1    
    45   22   24 1    
    46   22   90 1    
    47   23   91 1    
    48   23   92 1    
    49   23   93 1    
    50   24   25 am   BACKBONE|DICT|INTERRES
    51   24   94 1    
    52   25   26 2    
    53   25   27 1    
    54   27   28 1    
    55   27   29 1    
    56   27   95 1    
    57   28   96 1    
    58   28   97 1    
    59   28   98 1    
    60   29   30 am   BACKBONE|DICT|INTERRES
    61   29   99 1    
    62   30   31 2    
    63   30   32 1    
    64   32   33 1    
    65   32   34 1    
    66   32  100 1    
    67   33  101 1    
    68   33  102 1    
    69   33  103 1    
    70   34   35 am   BACKBONE|DICT|INTERRES
    71   34  104 1    
    72   35   36 2    
    73   37   38 2    
    74   37   39 am   BACKBONE|DICT|INTERRES
    75   39   40 1    
    76   39  105 1    
    77   40   41 1    
    78   40   42 1    
    79   40  106 1    
    80   41  107 1    
    81   41  108 1    
    82   41  109 1    
    83   42   43 2    
    84   42   44 am   BACKBONE|DICT|INTERRES
    85   44   45 1    
    86   44  110 1    
    87   45   46 1    
    88   45   47 1    
    89   45  111 1    
    90   46  112 1    
    91   46  113 1    
    92   46  114 1    
    93   47   48 2    
    94   47   49 am   BACKBONE|DICT|INTERRES
    95   49   50 1    
    96   49  115 1    
    97   50   51 1    
    98   50   52 1    
    99   50  116 1    
   100   51  117 1    
   101   51  118 1    
   102   51  119 1    
   103   52   53 2    
   104   52   54 am   BACKBONE|DICT|INTERRES
   105   54   55 1    
   106   54  120 1    
   107   55   56 1    
   108   55   57 1    
   109   55  121 1    
   110   56  122 1    
   111   56  123 1    
   112   56  124 1    
   113   57   58 2    
   114   57   59 am   BACKBONE|DICT|INTERRES
   115   59   60 1    
   116   59  125 1    
   117   60   61 1    
   118   60   62 1    
   119   60  126 1    
   120   61  127 1    
   121   61  128 1    
   122   61  129 1    
   123   62   63 2    
   124   62   64 am   BACKBONE|DICT|INTERRES
   125   64   65 1    
   126   64  130 1    
   127   65   66 1    
   128   65   69 1    
   129   65  131 1    
   130   66   67 am   BACKBONE|DICT|INTERRES
   131   66   68 2    
   132   67  132 1    
   133   67  133 1    
   134   69   70 1    
   135   69  134 1    
   136   69  135 1    
   137   70   71 1    
   138   71  136 1    
   139   71  137 1    
@<TRIPOS>SUBSTRUCTURE
     1 UNK         1 GROUP             0       ****    0 ROOT    
