@<TRIPOS>MOLECULE
3R137
137   139    1
SMALL
USER_CHARGES


@<TRIPOS>ATOM
      1 CA         25.8307   -4.5496   -8.2291 C.3       0 UNK        -0.2020 
      2 C          25.5883   -4.9717   -6.7886 C.2       0 UNK         0.4855 
      3 O          24.4428   -5.2095   -6.4053 O.2       0 UNK        -0.5197 
      4 N          26.6580   -5.0733   -5.9928 N.am      1 UNK        -0.4892 
      5 CA         26.6113   -5.3868   -4.5628 C.3       1 UNK         0.0835 
      6 C6         27.8962   -6.1198   -4.0956 C.3       12 UNK        -0.0855 
      7 S7         29.4593   -5.2770   -4.5323 S.3       12 UNK        -0.2931 
      8 C8         30.0811   -4.7000   -2.9166 C.3       12 UNK         0.0378 
      9 C9         30.2601   -3.1891   -2.8971 C.ar      12 UNK        -0.0802 
     10 C10        31.1837   -2.5876   -3.7563 C.ar      12 UNK        -0.0944 
     11 C11        31.3497   -1.2005   -3.7698 C.ar      12 UNK        -0.0787 
     12 C12        30.6098   -0.4151   -2.8810 C.ar      12 UNK        -0.0862 
     13 C13        29.6790   -1.0033   -2.0160 C.ar      12 UNK        -0.0733 
     14 C14        29.5090   -2.3915   -2.0282 C.ar      12 UNK        -0.0832 
     15 C15        28.8315   -0.1371   -1.0934 C.3       12 UNK         0.0240 
     16 S16        27.1886    0.2109   -1.8079 S.3       12 UNK        -0.2522 
     17 C17        27.6383    1.1435   -3.3094 C.3       12 UNK        -0.0967 
     18 CA         27.6609    0.2211   -4.5654 C.3       5 UNK         0.0660 
     19 N          26.3228   -0.2406   -4.9349 N.am      5 UNK        -0.4015 
     20 C          25.3579    0.4868   -5.5166 C.2       4 UNK         0.4946 
     21 O          25.5050    1.6428   -5.9169 O.2       4 UNK        -0.5353 
     22 CA         23.9727   -0.1728   -5.6024 C.3       4 UNK         0.0277 
     23 CB         23.9789   -1.3753   -6.5601 C.3       4 UNK        -0.1981 
     24 N          23.5215   -0.5917   -4.2738 N.am      4 UNK        -0.4209 
     25 C          23.1706    0.2449   -3.2867 C.2       3 UNK         0.4942 
     26 O          23.0161    1.4565   -3.4428 O.2       3 UNK        -0.5208 
     27 CA         22.9970   -0.3461   -1.8746 C.3       3 UNK         0.0250 
     28 CB         21.5665   -0.8769   -1.6519 C.3       3 UNK        -0.1990 
     29 N          24.0259   -1.3351   -1.5149 N.am      3 UNK        -0.4232 
     30 C          24.2024   -2.5689   -2.0054 C.2       2 UNK         0.4993 
     31 O          23.4367   -3.1042   -2.8108 O.2       2 UNK        -0.5286 
     32 CA         25.4625   -3.3132   -1.5286 C.3       2 UNK         0.0209 
     33 CB         25.2279   -3.9523   -0.1502 C.3       2 UNK        -0.1931 
     34 N          25.8855   -4.3533   -2.4699 N.am      2 UNK        -0.4546 
     35 C          26.3050   -4.1285   -3.7232 C.2       1 UNK         0.5154 
     36 O          26.4487   -2.9991   -4.2039 O.2       1 UNK        -0.5181 
     37 C          28.4343    0.7874   -5.7760 C.2       5 UNK         0.5014 
     38 O          28.4347    0.1600   -6.8384 O.2       5 UNK        -0.5248 
     39 N          29.0894    1.9460   -5.6115 N.am      6 UNK        -0.4434 
     40 CA         29.9566    2.5938   -6.5997 C.3       6 UNK         0.0363 
     41 CB         30.6166    3.8257   -5.9612 C.3       6 UNK        -0.1936 
     42 C          29.2729    2.9702   -7.9263 C.2       6 UNK         0.5081 
     43 O          29.9755    3.1460   -8.9198 O.2       6 UNK        -0.5248 
     44 N          27.9352    3.0477   -7.9486 N.am      7 UNK        -0.4718 
     45 CA         27.1514    3.2461   -9.1708 C.3       7 UNK         0.0273 
     46 CB         25.7109    3.6300   -8.7967 C.3       7 UNK        -0.1935 
     47 C          27.1570    2.0205  -10.1058 C.2       7 UNK         0.5018 
     48 O          26.8834    2.1861  -11.2954 O.2       7 UNK        -0.5186 
     49 N          27.4557    0.8295   -9.5659 N.am      8 UNK        -0.4240 
     50 CA         27.4978   -0.4333  -10.3043 C.3       8 UNK         0.0235 
     51 CB         26.4178   -1.3762   -9.7512 C.3       8 UNK        -0.2000 
     52 C          28.8813   -1.0937  -10.2291 C.2       8 UNK         0.4941 
     53 O          29.4005   -1.5189  -11.2612 O.2       8 UNK        -0.5273 
     54 N          29.4516   -1.1827   -9.0197 N.am      9 UNK        -0.4262 
     55 CA         30.7112   -1.8796   -8.7421 C.3       9 UNK         0.0264 
     56 CB         30.6545   -2.4510   -7.3168 C.3       9 UNK        -0.1955 
     57 C          31.9670   -1.0134   -8.9605 C.2       9 UNK         0.5031 
     58 O          33.0679   -1.5640   -8.9852 O.2       9 UNK        -0.5390 
     59 N          31.7895    0.3058   -9.1343 N.am      10 UNK        -0.4204 
     60 CA         32.7898    1.2910   -9.5751 C.3       10 UNK         0.0237 
     61 CB         33.1991    1.0086  -11.0375 C.3       10 UNK        -0.1985 
     62 C          34.0155    1.4877   -8.6555 C.2       10 UNK         0.4970 
     63 O          35.0344    1.9953   -9.1278 O.2       10 UNK        -0.4914 
     64 N          33.9123    1.1264   -7.3680 N.am      11 UNK        -0.4285 
     65 CA         34.9893    1.3128   -6.3758 C.3       11 UNK         0.1007 
     66 C          35.1687    2.7688   -5.8486 C.2       11 UNK         0.5703 
     67 N          34.3087    3.7169   -6.2025 N.am      11 UNK        -0.7361 
     68 O          36.1180    3.0461   -5.1192 O.2       11 UNK        -0.4986 
     69 C69        34.9387    0.2530   -5.2418 C.3       12 UNK        -0.0947 
     70 S70        33.5820    0.4477   -4.0331 S.3       12 UNK        -0.2240 
     71 C71        32.2779   -0.5609   -4.7933 C.3       12 UNK         0.0194 
     72 H72        26.8487   -4.1914   -8.3821 H         1 UNK         0.0906 
     73 H73        25.6595   -5.3907   -8.9002 H         1 UNK         0.0906 
     74 H74        25.1426   -3.7510   -8.5038 H         1 UNK         0.0906 
     75 H75        27.5756   -4.8304   -6.3389 H         1 UNK         0.3140 
     76 H76        25.7764   -6.0727   -4.3995 H         1 UNK         0.1085 
     77 H77        27.8590   -6.3344   -3.0266 H         1 UNK         0.0836 
     78 H78        27.9269   -7.1009   -4.5723 H         1 UNK         0.0836 
     79 H79        29.4210   -5.0168   -2.1087 H         1 UNK         0.0731 
     80 H80        31.0444   -5.1738   -2.7228 H         1 UNK         0.0731 
     81 H81        31.7505   -3.2061   -4.4387 H         1 UNK         0.1312 
     82 H82        30.7417    0.6578   -2.8862 H         1 UNK         0.1406 
     83 H83        28.7843   -2.8476   -1.3680 H         1 UNK         0.1631 
     84 H84        29.3403    0.8028   -0.8736 H         1 UNK         0.0717 
     85 H85        28.6995   -0.6412   -0.1349 H         1 UNK         0.0717 
     86 H86        26.9233    1.9578   -3.4410 H         1 UNK         0.0934 
     87 H87        28.5996    1.6186   -3.1167 H         1 UNK         0.0934 
     88 H88        28.2028   -0.6898   -4.3114 H         1 UNK         0.0739 
     89 H89        26.1366   -1.2094   -4.6846 H         1 UNK         0.3093 
     90 H90        23.2686    0.5676   -5.9884 H         1 UNK         0.0818 
     91 H91        22.9828   -1.8065   -6.6604 H         1 UNK         0.0819 
     92 H92        24.3035   -1.0758   -7.5569 H         1 UNK         0.0819 
     93 H93        24.6488   -2.1647   -6.2188 H         1 UNK         0.0819 
     94 H94        23.5900   -1.5788   -4.0429 H         1 UNK         0.3041 
     95 H95        23.1431    0.4807   -1.1773 H         1 UNK         0.0784 
     96 H96        20.8343   -0.0804   -1.7901 H         1 UNK         0.0793 
     97 H97        21.3080   -1.6732   -2.3502 H         1 UNK         0.0793 
     98 H98        21.4393   -1.2623   -0.6403 H         1 UNK         0.0793 
     99 H99        24.7325   -0.9834   -0.8825 H         1 UNK         0.3024 
    100 H100       26.2768   -2.5907   -1.4502 H         1 UNK         0.1171 
    101 H101       24.9501   -3.2010    0.5903 H         1 UNK         0.0786 
    102 H102       26.1275   -4.4467    0.2171 H         1 UNK         0.0786 
    103 H103       24.4259   -4.6911   -0.1801 H         1 UNK         0.0786 
    104 H104       25.7620   -5.3068   -2.1626 H         1 UNK         0.2977 
    105 H105       29.0030    2.4212   -4.7255 H         1 UNK         0.3127 
    106 H106       30.7458    1.8829   -6.8484 H         1 UNK         0.0770 
    107 H107       29.8750    4.5520   -5.6265 H         1 UNK         0.0814 
    108 H108       31.2689    4.3350   -6.6719 H         1 UNK         0.0814 
    109 H109       31.2303    3.5491   -5.1033 H         1 UNK         0.0814 
    110 H110       27.4181    2.8618   -7.0986 H         1 UNK         0.2983 
    111 H111       27.5918    4.0785   -9.7247 H         1 UNK         0.0947 
    112 H112       25.1264    3.8618   -9.6882 H         1 UNK         0.0806 
    113 H113       25.6859    4.5112   -8.1556 H         1 UNK         0.0806 
    114 H114       25.1990    2.8200   -8.2765 H         1 UNK         0.0806 
    115 H115       27.6811    0.7887   -8.5769 H         1 UNK         0.3000 
    116 H116       27.2834   -0.2652  -11.3620 H         1 UNK         0.0850 
    117 H117       26.4351   -2.3351  -10.2708 H         1 UNK         0.0810 
    118 H118       26.5588   -1.5715   -8.6873 H         1 UNK         0.0810 
    119 H119       25.4217   -0.9543   -9.8850 H         1 UNK         0.0810 
    120 H120       28.9729   -0.7863   -8.2104 H         1 UNK         0.3040 
    121 H121       30.8011   -2.7262   -9.4265 H         1 UNK         0.0766 
    122 H122       30.4383   -1.6787   -6.5810 H         1 UNK         0.0812 
    123 H123       31.5970   -2.9252   -7.0400 H         1 UNK         0.0812 
    124 H124       29.8771   -3.2100   -7.2285 H         1 UNK         0.0812 
    125 H125       30.8399    0.6492   -9.0947 H         1 UNK         0.3205 
    126 H126       32.2822    2.2548   -9.5729 H         1 UNK         0.0754 
    127 H127       33.8096    1.8168  -11.4424 H         1 UNK         0.0769 
    128 H128       32.3250    0.9158  -11.6825 H         1 UNK         0.0769 
    129 H129       33.7782    0.0885  -11.1237 H         1 UNK         0.0769 
    130 H130       33.0565    0.7118   -7.0381 H         1 UNK         0.2981 
    131 H131       35.9239    1.1101   -6.9027 H         1 UNK         0.0541 
    132 H132       33.5432    3.5083   -6.8199 H         1 UNK         0.3459 
    133 H133       34.4439    4.6547   -5.8598 H         1 UNK         0.3459 
    134 H134       35.8719    0.2854   -4.6769 H         1 UNK         0.0612 
    135 H135       34.9086   -0.7494   -5.6709 H         1 UNK         0.0612 
    136 H136       31.6897    0.0721   -5.4574 H         1 UNK         0.0624 
    137 H137       32.7305   -1.3310   -5.4188 H         1 UNK         0.0624 
@<TRIPOS>BOND
     1    1    2 1    
     2    1   72 1    
     3    1   73 1    
     4    1   74 1    
     5    2    3 2    
     6    2    4 am   BACKBONE|DICT|INTERRES
     7    4    5 1    
     8    4   75 1    
     9    5    6 1    
    10    5   35 1    
    11    5   76 1    
    12    6    7 1    
    13    6   77 1    
    14    6   78 1    
    15    7    8 1    
    16    8    9 1    
    17    8   79 1    
    18    8   80 1    
    19    9   10 ar   
    20    9   14 ar   
    21   10   11 ar   
    22   10   81 1    
    23   11   12 ar   
    24   11   71 1    
    25   12   13 ar   
    26   12   82 1    
    27   13   14 ar   
    28   13   15 1    
    29   14   83 1    
    30   15   16 1    
    31   15   84 1    
    32   15   85 1    
    33   16   17 1    
    34   17   18 1    
    35   17   86 1    
    36   17   87 1    
    37   18   19 1    
    38   18   37 1    
    39   18   88 1    
    40   19   20 am   BACKBONE|DICT|INTERRES
    41   19   89 1    
    42   20   21 2    
    43   20   22 1    
    44   22   23 1    
    45   22   24 1    
    46   22   90 1    
    47   23   91 1    
    48   23   92 1    
    49   23   93 1    
    50   24   25 am   BACKBONE|DICT|INTERRES
    51   24   94 1    
    52   25   26 2    
    53   25   27 1    
    54   27   28 1    
    55   27   29 1    
    56   27   95 1    
    57   28   96 1    
    58   28   97 1    
    59   28   98 1    
    60   29   30 am   BACKBONE|DICT|INTERRES
    61   29   99 1    
    62   30   31 2    
    63   30   32 1    
    64   32   33 1    
    65   32   34 1    
    66   32  100 1    
    67   33  101 1    
    68   33  102 1    
    69   33  103 1    
    70   34   35 am   BACKBONE|DICT|INTERRES
    71   34  104 1    
    72   35   36 2    
    73   37   38 2    
    74   37   39 am   BACKBONE|DICT|INTERRES
    75   39   40 1    
    76   39  105 1    
    77   40   41 1    
    78   40   42 1    
    79   40  106 1    
    80   41  107 1    
    81   41  108 1    
    82   41  109 1    
    83   42   43 2    
    84   42   44 am   BACKBONE|DICT|INTERRES
    85   44   45 1    
    86   44  110 1    
    87   45   46 1    
    88   45   47 1    
    89   45  111 1    
    90   46  112 1    
    91   46  113 1    
    92   46  114 1    
    93   47   48 2    
    94   47   49 am   BACKBONE|DICT|INTERRES
    95   49   50 1    
    96   49  115 1    
    97   50   51 1    
    98   50   52 1    
    99   50  116 1    
   100   51  117 1    
   101   51  118 1    
   102   51  119 1    
   103   52   53 2    
   104   52   54 am   BACKBONE|DICT|INTERRES
   105   54   55 1    
   106   54  120 1    
   107   55   56 1    
   108   55   57 1    
   109   55  121 1    
   110   56  122 1    
   111   56  123 1    
   112   56  124 1    
   113   57   58 2    
   114   57   59 am   BACKBONE|DICT|INTERRES
   115   59   60 1    
   116   59  125 1    
   117   60   61 1    
   118   60   62 1    
   119   60  126 1    
   120   61  127 1    
   121   61  128 1    
   122   61  129 1    
   123   62   63 2    
   124   62   64 am   BACKBONE|DICT|INTERRES
   125   64   65 1    
   126   64  130 1    
   127   65   66 1    
   128   65   69 1    
   129   65  131 1    
   130   66   67 am   BACKBONE|DICT|INTERRES
   131   66   68 2    
   132   67  132 1    
   133   67  133 1    
   134   69   70 1    
   135   69  134 1    
   136   69  135 1    
   137   70   71 1    
   138   71  136 1    
   139   71  137 1    
@<TRIPOS>SUBSTRUCTURE
     1 UNK         1 GROUP             0       ****    0 ROOT    
