@<TRIPOS>MOLECULE
3R137
137   139    1
SMALL
USER_CHARGES


@<TRIPOS>ATOM
      1 CA         28.5873   -0.0937   -1.1378 C.3       0 UNK        -0.2020 
      2 C          29.1624   -0.7433    0.1197 C.2       0 UNK         0.4855 
      3 O          29.6133   -0.0263    1.0106 O.2       0 UNK        -0.5197 
      4 N          29.1865   -2.0781    0.2446 N.am      1 UNK        -0.4892 
      5 CA         28.6325   -3.0789   -0.6774 C.3       1 UNK         0.0835 
      6 C6         29.1032   -4.5165   -0.3330 C.3       12 UNK        -0.0855 
      7 S7         30.9192   -4.6475   -0.1562 S.3       12 UNK        -0.2931 
      8 C8         31.4470   -5.1930   -1.8138 C.3       12 UNK         0.0378 
      9 C9         31.0360   -4.2182   -2.9097 C.ar      12 UNK        -0.0802 
     10 C10        31.5018   -2.8970   -2.8990 C.ar      12 UNK        -0.0944 
     11 C11        31.1052   -1.9936   -3.8918 C.ar      12 UNK        -0.0787 
     12 C12        30.2533   -2.4329   -4.9067 C.ar      12 UNK        -0.0862 
     13 C13        29.7791   -3.7449   -4.9286 C.ar      12 UNK        -0.0733 
     14 C14        30.1737   -4.6363   -3.9286 C.ar      12 UNK        -0.0832 
     15 C15        28.8303   -4.1824   -6.0305 C.3       12 UNK         0.0240 
     16 S16        27.1003   -3.9090   -5.5392 S.3       12 UNK        -0.2522 
     17 C17        26.2911   -3.8167   -7.1735 C.3       12 UNK        -0.0967 
     18 CA         25.8141   -2.4083   -7.6209 C.3       5 UNK         0.0660 
     19 N          24.6249   -1.9351   -6.9095 N.am      5 UNK        -0.4015 
     20 C          23.6829   -1.1718   -7.4870 C.2       4 UNK         0.4946 
     21 O          23.6962   -0.8456   -8.6749 O.2       4 UNK        -0.5353 
     22 CA         22.5288   -0.6744   -6.6014 C.3       4 UNK         0.0277 
     23 CB         21.4233   -1.7385   -6.5063 C.3       4 UNK        -0.1981 
     24 N          22.9490   -0.2843   -5.2561 N.am      4 UNK        -0.4209 
     25 C          23.7956    0.7162   -4.9731 C.2       3 UNK         0.4942 
     26 O          24.3279    1.4340   -5.8198 O.2       3 UNK        -0.5208 
     27 CA         24.1363    0.9173   -3.4865 C.3       3 UNK         0.0250 
     28 CB         23.1047    1.8385   -2.8163 C.3       3 UNK        -0.1990 
     29 N          24.2411   -0.3385   -2.7320 N.am      3 UNK        -0.4232 
     30 C          25.1073   -1.3194   -3.0183 C.2       2 UNK         0.4993 
     31 O          25.8763   -1.2925   -3.9821 O.2       2 UNK        -0.5286 
     32 CA         25.1087   -2.5432   -2.0997 C.3       2 UNK         0.0209 
     33 CB         24.3452   -3.7104   -2.7466 C.3       2 UNK        -0.1931 
     34 N          26.5046   -2.9202   -1.8914 N.am      2 UNK        -0.4546 
     35 C          27.0945   -2.9882   -0.6936 C.2       1 UNK         0.5154 
     36 O          26.4817   -2.9458    0.3762 O.2       1 UNK        -0.5181 
     37 C          26.9176   -1.3340   -7.6139 C.2       5 UNK         0.5014 
     38 O          27.5556   -1.1354   -8.6470 O.2       5 UNK        -0.5248 
     39 N          27.1034   -0.6277   -6.4861 N.am      6 UNK        -0.4434 
     40 CA         28.0995    0.4362   -6.3162 C.3       6 UNK         0.0363 
     41 CB         28.1005    0.9286   -4.8637 C.3       6 UNK        -0.1936 
     42 C          27.9412    1.6081   -7.2917 C.2       6 UNK         0.5081 
     43 O          28.9545    2.1262   -7.7604 O.2       6 UNK        -0.5248 
     44 N          26.6928    1.9589   -7.6296 N.am      7 UNK        -0.4718 
     45 CA         26.3534    2.9623   -8.6433 C.3       7 UNK         0.0273 
     46 CB         24.8295    3.1623   -8.6619 C.3       7 UNK        -0.1935 
     47 C          26.8666    2.6293  -10.0585 C.2       7 UNK         0.5018 
     48 O          27.1026    3.5534  -10.8380 O.2       7 UNK        -0.5186 
     49 N          27.0321    1.3347  -10.3628 N.am      8 UNK        -0.4240 
     50 CA         27.5965    0.8437  -11.6190 C.3       8 UNK         0.0235 
     51 CB         26.8212   -0.4052  -12.0721 C.3       8 UNK        -0.2000 
     52 C          29.0930    0.5288  -11.4734 C.2       8 UNK         0.4941 
     53 O          29.8726    0.8951  -12.3533 O.2       8 UNK        -0.5273 
     54 N          29.4630   -0.1635  -10.3864 N.am      9 UNK        -0.4262 
     55 CA         30.8128   -0.6672  -10.1325 C.3       9 UNK         0.0264 
     56 CB         30.7706   -1.7078   -9.0001 C.3       9 UNK        -0.1955 
     57 C          31.8402    0.4282   -9.8132 C.2       9 UNK         0.5031 
     58 O          32.9690    0.3295  -10.2966 O.2       9 UNK        -0.5390 
     59 N          31.4451    1.4246   -9.0008 N.am      10 UNK        -0.4204 
     60 CA         32.2691    2.5306   -8.4907 C.3       10 UNK         0.0237 
     61 CB         32.5254    3.5612   -9.6105 C.3       10 UNK        -0.1985 
     62 C          33.5667    2.0375   -7.8153 C.2       10 UNK         0.4970 
     63 O          34.6629    2.4012   -8.2465 O.2       10 UNK        -0.4914 
     64 N          33.4114    1.1727   -6.8014 N.am      11 UNK        -0.4285 
     65 CA         34.5095    0.4367   -6.1488 C.3       11 UNK         0.1007 
     66 C          35.5759    1.2949   -5.3998 C.2       11 UNK         0.5703 
     67 N          35.3153    2.5600   -5.0915 N.am      11 UNK        -0.7361 
     68 O          36.6620    0.8017   -5.1039 O.2       11 UNK        -0.4986 
     69 C69        33.9791   -0.7530   -5.2963 C.3       12 UNK        -0.0947 
     70 S70        33.3230   -0.2931   -3.6525 S.3       12 UNK        -0.2240 
     71 C71        31.5301   -0.5292   -3.8460 C.3       12 UNK         0.0194 
     72 H72        28.9914    0.9108   -1.2622 H         1 UNK         0.0906 
     73 H73        28.8351   -0.6534   -2.0367 H         1 UNK         0.0906 
     74 H74        27.5035   -0.0092   -1.0639 H         1 UNK         0.0906 
     75 H75        29.5855   -2.4688    1.0860 H         1 UNK         0.3140 
     76 H76        28.9956   -2.8495   -1.6785 H         1 UNK         0.1085 
     77 H77        28.7635   -5.2237   -1.0923 H         1 UNK         0.0836 
     78 H78        28.6585   -4.8479    0.6077 H         1 UNK         0.0836 
     79 H79        32.5329   -5.2961   -1.8216 H         1 UNK         0.0731 
     80 H80        31.0436   -6.1892   -2.0027 H         1 UNK         0.0731 
     81 H81        32.1521   -2.5663   -2.1005 H         1 UNK         0.1312 
     82 H82        29.9377   -1.7514   -5.6782 H         1 UNK         0.1406 
     83 H83        29.8007   -5.6517   -3.9417 H         1 UNK         0.1631 
     84 H84        28.9784   -5.2366   -6.2695 H         1 UNK         0.0717 
     85 H85        29.0510   -3.6243   -6.9421 H         1 UNK         0.0717 
     86 H86        26.9647   -4.2265   -7.9283 H         1 UNK         0.0934 
     87 H87        25.4397   -4.4989   -7.1606 H         1 UNK         0.0934 
     88 H88        25.5371   -2.5310   -8.6708 H         1 UNK         0.0739 
     89 H89        24.5827   -2.1218   -5.9174 H         1 UNK         0.3093 
     90 H90        22.1083    0.2119   -7.0819 H         1 UNK         0.0818 
     91 H91        20.5555   -1.3625   -5.9639 H         1 UNK         0.0819 
     92 H92        21.0788   -2.0319   -7.4991 H         1 UNK         0.0819 
     93 H93        21.7703   -2.6414   -6.0021 H         1 UNK         0.0819 
     94 H94        22.5670   -0.8142   -4.4866 H         1 UNK         0.3041 
     95 H95        25.1087    1.4100   -3.4380 H         1 UNK         0.0784 
     96 H96        23.0233    2.7861   -3.3511 H         1 UNK         0.0793 
     97 H97        22.1109    1.3893   -2.7966 H         1 UNK         0.0793 
     98 H98        23.3886    2.0727   -1.7901 H         1 UNK         0.0793 
     99 H99        23.6352   -0.4347   -1.9293 H         1 UNK         0.3024 
    100 H100       24.6261   -2.2808   -1.1552 H         1 UNK         0.1171 
    101 H101       23.2970   -3.4535   -2.9040 H         1 UNK         0.0786 
    102 H102       24.3698   -4.5961   -2.1116 H         1 UNK         0.0786 
    103 H103       24.7630   -3.9849   -3.7153 H         1 UNK         0.0786 
    104 H104       27.0642   -2.9187   -2.7359 H         1 UNK         0.2977 
    105 H105       26.5663   -0.8757   -5.6563 H         1 UNK         0.3127 
    106 H106       29.0765    0.0060   -6.5272 H         1 UNK         0.0770 
    107 H107       27.1465    1.3809   -4.5948 H         1 UNK         0.0814 
    108 H108       28.8766    1.6779   -4.7022 H         1 UNK         0.0814 
    109 H109       28.2897    0.1079   -4.1739 H         1 UNK         0.0814 
    110 H110       25.9159    1.5185   -7.1455 H         1 UNK         0.2983 
    111 H111       26.8212    3.9029   -8.3447 H         1 UNK         0.0947 
    112 H112       24.5388    3.9036   -9.4076 H         1 UNK         0.0806 
    113 H113       24.4648    3.5149   -7.6969 H         1 UNK         0.0806 
    114 H114       24.3054    2.2349   -8.8982 H         1 UNK         0.0806 
    115 H115       26.8510    0.6433   -9.6453 H         1 UNK         0.3000 
    116 H116       27.4896    1.6019  -12.3980 H         1 UNK         0.0850 
    117 H117       27.2196   -0.7919  -13.0111 H         1 UNK         0.0810 
    118 H118       25.7679   -0.1771  -12.2366 H         1 UNK         0.0810 
    119 H119       26.8766   -1.2098  -11.3378 H         1 UNK         0.0810 
    120 H120       28.7416   -0.4625   -9.7299 H         1 UNK         0.3040 
    121 H121       31.1482   -1.1755  -11.0392 H         1 UNK         0.0766 
    122 H122       31.7616   -2.1236   -8.8125 H         1 UNK         0.0812 
    123 H123       30.1122   -2.5397   -9.2508 H         1 UNK         0.0812 
    124 H124       30.4172   -1.2734   -8.0657 H         1 UNK         0.0812 
    125 H125       30.4794    1.4376   -8.6789 H         1 UNK         0.3205 
    126 H126       31.6824    3.0255   -7.7153 H         1 UNK         0.0754 
    127 H127       33.0741    4.4239   -9.2308 H         1 UNK         0.0769 
    128 H128       31.5885    3.9306  -10.0278 H         1 UNK         0.0769 
    129 H129       33.1097    3.1354  -10.4271 H         1 UNK         0.0769 
    130 H130       32.4791    0.9408   -6.4976 H         1 UNK         0.2981 
    131 H131       35.0629   -0.0177   -6.9731 H         1 UNK         0.0541 
    132 H132       36.0133    3.1061   -4.6122 H         1 UNK         0.3459 
    133 H133       34.4290    2.9712   -5.3342 H         1 UNK         0.3459 
    134 H134       34.7904   -1.4628   -5.1259 H         1 UNK         0.0612 
    135 H135       33.2233   -1.3113   -5.8512 H         1 UNK         0.0612 
    136 H136       31.0327   -0.0530   -3.0009 H         1 UNK         0.0624 
    137 H137       31.1983    0.0060   -4.7367 H         1 UNK         0.0624 
@<TRIPOS>BOND
     1    1    2 1    
     2    1   72 1    
     3    1   73 1    
     4    1   74 1    
     5    2    3 2    
     6    2    4 am   BACKBONE|DICT|INTERRES
     7    4    5 1    
     8    4   75 1    
     9    5    6 1    
    10    5   35 1    
    11    5   76 1    
    12    6    7 1    
    13    6   77 1    
    14    6   78 1    
    15    7    8 1    
    16    8    9 1    
    17    8   79 1    
    18    8   80 1    
    19    9   10 ar   
    20    9   14 ar   
    21   10   11 ar   
    22   10   81 1    
    23   11   12 ar   
    24   11   71 1    
    25   12   13 ar   
    26   12   82 1    
    27   13   14 ar   
    28   13   15 1    
    29   14   83 1    
    30   15   16 1    
    31   15   84 1    
    32   15   85 1    
    33   16   17 1    
    34   17   18 1    
    35   17   86 1    
    36   17   87 1    
    37   18   19 1    
    38   18   37 1    
    39   18   88 1    
    40   19   20 am   BACKBONE|DICT|INTERRES
    41   19   89 1    
    42   20   21 2    
    43   20   22 1    
    44   22   23 1    
    45   22   24 1    
    46   22   90 1    
    47   23   91 1    
    48   23   92 1    
    49   23   93 1    
    50   24   25 am   BACKBONE|DICT|INTERRES
    51   24   94 1    
    52   25   26 2    
    53   25   27 1    
    54   27   28 1    
    55   27   29 1    
    56   27   95 1    
    57   28   96 1    
    58   28   97 1    
    59   28   98 1    
    60   29   30 am   BACKBONE|DICT|INTERRES
    61   29   99 1    
    62   30   31 2    
    63   30   32 1    
    64   32   33 1    
    65   32   34 1    
    66   32  100 1    
    67   33  101 1    
    68   33  102 1    
    69   33  103 1    
    70   34   35 am   BACKBONE|DICT|INTERRES
    71   34  104 1    
    72   35   36 2    
    73   37   38 2    
    74   37   39 am   BACKBONE|DICT|INTERRES
    75   39   40 1    
    76   39  105 1    
    77   40   41 1    
    78   40   42 1    
    79   40  106 1    
    80   41  107 1    
    81   41  108 1    
    82   41  109 1    
    83   42   43 2    
    84   42   44 am   BACKBONE|DICT|INTERRES
    85   44   45 1    
    86   44  110 1    
    87   45   46 1    
    88   45   47 1    
    89   45  111 1    
    90   46  112 1    
    91   46  113 1    
    92   46  114 1    
    93   47   48 2    
    94   47   49 am   BACKBONE|DICT|INTERRES
    95   49   50 1    
    96   49  115 1    
    97   50   51 1    
    98   50   52 1    
    99   50  116 1    
   100   51  117 1    
   101   51  118 1    
   102   51  119 1    
   103   52   53 2    
   104   52   54 am   BACKBONE|DICT|INTERRES
   105   54   55 1    
   106   54  120 1    
   107   55   56 1    
   108   55   57 1    
   109   55  121 1    
   110   56  122 1    
   111   56  123 1    
   112   56  124 1    
   113   57   58 2    
   114   57   59 am   BACKBONE|DICT|INTERRES
   115   59   60 1    
   116   59  125 1    
   117   60   61 1    
   118   60   62 1    
   119   60  126 1    
   120   61  127 1    
   121   61  128 1    
   122   61  129 1    
   123   62   63 2    
   124   62   64 am   BACKBONE|DICT|INTERRES
   125   64   65 1    
   126   64  130 1    
   127   65   66 1    
   128   65   69 1    
   129   65  131 1    
   130   66   67 am   BACKBONE|DICT|INTERRES
   131   66   68 2    
   132   67  132 1    
   133   67  133 1    
   134   69   70 1    
   135   69  134 1    
   136   69  135 1    
   137   70   71 1    
   138   71  136 1    
   139   71  137 1    
@<TRIPOS>SUBSTRUCTURE
     1 UNK         1 GROUP             0       ****    0 ROOT    
