@<TRIPOS>MOLECULE
3R137
137   139    1
SMALL
USER_CHARGES


@<TRIPOS>ATOM
      1 CA         26.4249   -6.4154   -5.4699 C.3       0 UNK        -0.2020 
      2 C          26.2665   -5.7518   -4.1106 C.2       0 UNK         0.4855 
      3 O          25.1571   -5.3643   -3.7431 O.2       0 UNK        -0.5197 
      4 N          27.3654   -5.6120   -3.3580 N.am      1 UNK        -0.4892 
      5 CA         27.4032   -4.8939   -2.0802 C.3       1 UNK         0.0835 
      6 C6         28.7045   -5.2052   -1.3018 C.3       12 UNK        -0.0855 
      7 S7         28.7358   -4.4624    0.3709 S.3       12 UNK        -0.2931 
      8 C8         30.4232   -3.7837    0.4927 C.3       12 UNK         0.0378 
      9 C9         30.7638   -2.7875   -0.6103 C.ar      12 UNK        -0.0802 
     10 C10        31.6147   -3.1730   -1.6494 C.ar      12 UNK        -0.0944 
     11 C11        31.9832   -2.2651   -2.6434 C.ar      12 UNK        -0.0787 
     12 C12        31.5087   -0.9522   -2.5864 C.ar      12 UNK        -0.0862 
     13 C13        30.6502   -0.5503   -1.5567 C.ar      12 UNK        -0.0733 
     14 C14        30.2751   -1.4766   -0.5744 C.ar      12 UNK        -0.0832 
     15 C15        30.1718    0.8948   -1.4709 C.3       12 UNK         0.0240 
     16 S16        28.7186    1.2196   -2.5202 S.3       12 UNK        -0.2522 
     17 C17        29.4912    1.7699   -4.0768 C.3       12 UNK        -0.0967 
     18 CA         28.6103    1.6035   -5.3385 C.3       5 UNK         0.0660 
     19 N          28.1095    0.2410   -5.5332 N.am      5 UNK        -0.4015 
     20 C          27.7157   -0.2304   -6.7247 C.2       4 UNK         0.4946 
     21 O          27.7512    0.4281   -7.7649 O.2       4 UNK        -0.5353 
     22 CA         27.1527   -1.6574   -6.7584 C.3       4 UNK         0.0277 
     23 CB         28.2718   -2.7013   -6.6072 C.3       4 UNK        -0.1981 
     24 N          26.1253   -1.8596   -5.7353 N.am      4 UNK        -0.4209 
     25 C          24.9102   -1.2884   -5.7777 C.2       3 UNK         0.4942 
     26 O          24.5391   -0.5451   -6.6840 O.2       3 UNK        -0.5208 
     27 CA         23.9449   -1.5601   -4.6110 C.3       3 UNK         0.0250 
     28 CB         23.0361   -2.7566   -4.9312 C.3       3 UNK        -0.1990 
     29 N          24.6245   -1.7815   -3.3350 N.am      3 UNK        -0.4232 
     30 C          25.3785   -0.8642   -2.7114 C.2       2 UNK         0.4993 
     31 O          25.5348    0.2826   -3.1275 O.2       2 UNK        -0.5286 
     32 CA         26.1198   -1.3115   -1.4401 C.3       2 UNK         0.0209 
     33 CB         25.3156   -0.9376   -0.1856 C.3       2 UNK        -0.1931 
     34 N          26.4407   -2.7411   -1.4074 N.am      2 UNK        -0.4546 
     35 C          27.1924   -3.3820   -2.3143 C.2       1 UNK         0.5154 
     36 O          27.6797   -2.8370   -3.3085 O.2       1 UNK        -0.5181 
     37 C          27.4976    2.6659   -5.4578 C.2       5 UNK         0.5014 
     38 O          27.7732    3.7437   -5.9861 O.2       5 UNK        -0.5248 
     39 N          26.2585    2.3473   -5.0462 N.am      6 UNK        -0.4434 
     40 CA         25.0809    3.2011   -5.2549 C.3       6 UNK         0.0363 
     41 CB         23.8754    2.6416   -4.4852 C.3       6 UNK        -0.1936 
     42 C          24.7262    3.3914   -6.7415 C.2       6 UNK         0.5081 
     43 O          24.3446    4.4941   -7.1337 O.2       6 UNK        -0.5248 
     44 N          24.8916    2.3339   -7.5492 N.am      7 UNK        -0.4718 
     45 CA         24.7475    2.3681   -9.0094 C.3       7 UNK         0.0273 
     46 CB         24.5065    0.9383   -9.5222 C.3       7 UNK        -0.1935 
     47 C          25.9550    2.9963   -9.7332 C.2       7 UNK         0.5018 
     48 O          25.8790    3.1979  -10.9460 O.2       7 UNK        -0.5186 
     49 N          27.0391    3.2749   -8.9934 N.am      8 UNK        -0.4240 
     50 CA         28.3346    3.7851   -9.4519 C.3       8 UNK         0.0235 
     51 CB         28.2007    5.2134  -10.0227 C.3       8 UNK        -0.2000 
     52 C          29.0588    2.8125  -10.4031 C.2       8 UNK         0.4941 
     53 O          29.7071    3.2521  -11.3559 O.2       8 UNK        -0.5273 
     54 N          28.9484    1.5060  -10.1240 N.am      9 UNK        -0.4262 
     55 CA         29.6950    0.4505  -10.8075 C.3       9 UNK         0.0264 
     56 CB         29.0090   -0.9006  -10.5430 C.3       9 UNK        -0.1955 
     57 C          31.1538    0.4169  -10.3235 C.2       9 UNK         0.5031 
     58 O          31.4555    0.8967   -9.2257 O.2       9 UNK        -0.5390 
     59 N          32.0327   -0.1939  -11.1277 N.am      10 UNK        -0.4204 
     60 CA         33.4633   -0.3675  -10.8500 C.3       10 UNK         0.0237 
     61 CB         34.1990   -0.6348  -12.1773 C.3       10 UNK        -0.1985 
     62 C          33.7375   -1.4547   -9.7878 C.2       10 UNK         0.4970 
     63 O          34.4638   -2.4135  -10.0567 O.2       10 UNK        -0.4914 
     64 N          33.1339   -1.2924   -8.6059 N.am      11 UNK        -0.4285 
     65 CA         33.3155   -2.1446   -7.4271 C.3       11 UNK         0.1007 
     66 C          34.7544   -2.0332   -6.8495 C.2       11 UNK         0.5703 
     67 N          35.3618   -3.1466   -6.4623 N.am      11 UNK        -0.7361 
     68 O          35.3071   -0.9423   -6.7199 O.2       11 UNK        -0.4986 
     69 C69        32.2312   -1.8354   -6.3597 C.3       12 UNK        -0.0947 
     70 S70        31.9692   -3.2398   -5.2267 S.3       12 UNK        -0.2240 
     71 C71        32.9107   -2.7087   -3.7625 C.3       12 UNK         0.0194 
     72 H72        25.8289   -7.3265   -5.5142 H         1 UNK         0.0906 
     73 H73        26.0801   -5.7438   -6.2558 H         1 UNK         0.0906 
     74 H74        27.4623   -6.6765   -5.6785 H         1 UNK         0.0906 
     75 H75        28.2584   -5.9146   -3.7201 H         1 UNK         0.3140 
     76 H76        26.5652   -5.2615   -1.4829 H         1 UNK         0.1085 
     77 H77        29.5692   -4.8890   -1.8837 H         1 UNK         0.0836 
     78 H78        28.8101   -6.2844   -1.1803 H         1 UNK         0.0836 
     79 H79        31.1339   -4.6118    0.4932 H         1 UNK         0.0731 
     80 H80        30.5334   -3.2954    1.4621 H         1 UNK         0.0731 
     81 H81        31.9961   -4.1845   -1.6840 H         1 UNK         0.1312 
     82 H82        31.8203   -0.2460   -3.3414 H         1 UNK         0.1406 
     83 H83        29.6200   -1.1741    0.2315 H         1 UNK         0.1631 
     84 H84        30.9817    1.5762   -1.7357 H         1 UNK         0.0717 
     85 H85        29.9079    1.1347   -0.4399 H         1 UNK         0.0717 
     86 H86        29.8036    2.8098   -3.9615 H         1 UNK         0.0934 
     87 H87        30.4117    1.2089   -4.2277 H         1 UNK         0.0934 
     88 H88        29.2785    1.8026   -6.1806 H         1 UNK         0.0739 
     89 H89        28.0307   -0.3402   -4.7095 H         1 UNK         0.3093 
     90 H90        26.6869   -1.8061   -7.7353 H         1 UNK         0.0818 
     91 H91        28.9985   -2.6121   -7.4152 H         1 UNK         0.0819 
     92 H92        28.8172   -2.5865   -5.6699 H         1 UNK         0.0819 
     93 H93        27.8761   -3.7162   -6.6401 H         1 UNK         0.0819 
     94 H94        26.3930   -2.3990   -4.9189 H         1 UNK         0.3041 
     95 H95        23.3112   -0.6791   -4.4955 H         1 UNK         0.0784 
     96 H96        22.4677   -2.5777   -5.8451 H         1 UNK         0.0793 
     97 H97        23.6092   -3.6718   -5.0810 H         1 UNK         0.0793 
     98 H98        22.3159   -2.9363   -4.1328 H         1 UNK         0.0793 
     99 H99        24.5693   -2.7105   -2.9411 H         1 UNK         0.3024 
    100 H100       27.0671   -0.7731   -1.4107 H         1 UNK         0.1171 
    101 H101       25.8738   -1.1586    0.7244 H         1 UNK         0.0786 
    102 H102       25.0895    0.1298   -0.1731 H         1 UNK         0.0786 
    103 H103       24.3666   -1.4731   -0.1388 H         1 UNK         0.0786 
    104 H104       26.0954   -3.2609   -0.6130 H         1 UNK         0.2977 
    105 H105       26.1074    1.4784   -4.5380 H         1 UNK         0.3127 
    106 H106       25.3131    4.1863   -4.8449 H         1 UNK         0.0770 
    107 H107       23.6024    1.6471   -4.8371 H         1 UNK         0.0814 
    108 H108       23.0015    3.2827   -4.6083 H         1 UNK         0.0814 
    109 H109       24.0811    2.5772   -3.4167 H         1 UNK         0.0814 
    110 H110       25.1451    1.4379   -7.1452 H         1 UNK         0.2983 
    111 H111       23.8725    2.9721   -9.2594 H         1 UNK         0.0947 
    112 H112       25.3492    0.2836   -9.2954 H         1 UNK         0.0806 
    113 H113       24.3643    0.9252  -10.6036 H         1 UNK         0.0806 
    114 H114       23.6134    0.5021   -9.0747 H         1 UNK         0.0806 
    115 H115       26.9879    3.0643   -8.0048 H         1 UNK         0.3000 
    116 H116       28.9618    3.8481   -8.5614 H         1 UNK         0.0850 
    117 H117       29.1811    5.6449  -10.2281 H         1 UNK         0.0810 
    118 H118       27.6978    5.8756   -9.3179 H         1 UNK         0.0810 
    119 H119       27.6390    5.2269  -10.9570 H         1 UNK         0.0810 
    120 H120       28.4401    1.2219   -9.2876 H         1 UNK         0.3040 
    121 H121       29.6813    0.6501  -11.8812 H         1 UNK         0.0766 
    122 H122       27.9547   -0.8722  -10.8192 H         1 UNK         0.0812 
    123 H123       29.0709   -1.1842   -9.4921 H         1 UNK         0.0812 
    124 H124       29.4744   -1.6991  -11.1217 H         1 UNK         0.0812 
    125 H125       31.6953   -0.5972  -11.9904 H         1 UNK         0.3205 
    126 H126       33.8495    0.5707  -10.4453 H         1 UNK         0.0754 
    127 H127       35.2750   -0.7206  -12.0183 H         1 UNK         0.0769 
    128 H128       34.0445    0.1779  -12.8875 H         1 UNK         0.0769 
    129 H129       33.8634   -1.5603  -12.6470 H         1 UNK         0.0769 
    130 H130       32.5521   -0.4669   -8.4911 H         1 UNK         0.2981 
    131 H131       33.1670   -3.1698   -7.7732 H         1 UNK         0.0541 
    132 H132       36.2912   -3.0904   -6.0768 H         1 UNK         0.3459 
    133 H133       34.9081   -4.0425   -6.5499 H         1 UNK         0.3459 
    134 H134       32.4562   -0.9223   -5.8057 H         1 UNK         0.0612 
    135 H135       31.2720   -1.6525   -6.8465 H         1 UNK         0.0612 
    136 H136       33.6072   -1.9081   -4.0147 H         1 UNK         0.0624 
    137 H137       33.5278   -3.5442   -3.4285 H         1 UNK         0.0624 
@<TRIPOS>BOND
     1    1    2 1    
     2    1   72 1    
     3    1   73 1    
     4    1   74 1    
     5    2    3 2    
     6    2    4 am   BACKBONE|DICT|INTERRES
     7    4    5 1    
     8    4   75 1    
     9    5    6 1    
    10    5   35 1    
    11    5   76 1    
    12    6    7 1    
    13    6   77 1    
    14    6   78 1    
    15    7    8 1    
    16    8    9 1    
    17    8   79 1    
    18    8   80 1    
    19    9   10 ar   
    20    9   14 ar   
    21   10   11 ar   
    22   10   81 1    
    23   11   12 ar   
    24   11   71 1    
    25   12   13 ar   
    26   12   82 1    
    27   13   14 ar   
    28   13   15 1    
    29   14   83 1    
    30   15   16 1    
    31   15   84 1    
    32   15   85 1    
    33   16   17 1    
    34   17   18 1    
    35   17   86 1    
    36   17   87 1    
    37   18   19 1    
    38   18   37 1    
    39   18   88 1    
    40   19   20 am   BACKBONE|DICT|INTERRES
    41   19   89 1    
    42   20   21 2    
    43   20   22 1    
    44   22   23 1    
    45   22   24 1    
    46   22   90 1    
    47   23   91 1    
    48   23   92 1    
    49   23   93 1    
    50   24   25 am   BACKBONE|DICT|INTERRES
    51   24   94 1    
    52   25   26 2    
    53   25   27 1    
    54   27   28 1    
    55   27   29 1    
    56   27   95 1    
    57   28   96 1    
    58   28   97 1    
    59   28   98 1    
    60   29   30 am   BACKBONE|DICT|INTERRES
    61   29   99 1    
    62   30   31 2    
    63   30   32 1    
    64   32   33 1    
    65   32   34 1    
    66   32  100 1    
    67   33  101 1    
    68   33  102 1    
    69   33  103 1    
    70   34   35 am   BACKBONE|DICT|INTERRES
    71   34  104 1    
    72   35   36 2    
    73   37   38 2    
    74   37   39 am   BACKBONE|DICT|INTERRES
    75   39   40 1    
    76   39  105 1    
    77   40   41 1    
    78   40   42 1    
    79   40  106 1    
    80   41  107 1    
    81   41  108 1    
    82   41  109 1    
    83   42   43 2    
    84   42   44 am   BACKBONE|DICT|INTERRES
    85   44   45 1    
    86   44  110 1    
    87   45   46 1    
    88   45   47 1    
    89   45  111 1    
    90   46  112 1    
    91   46  113 1    
    92   46  114 1    
    93   47   48 2    
    94   47   49 am   BACKBONE|DICT|INTERRES
    95   49   50 1    
    96   49  115 1    
    97   50   51 1    
    98   50   52 1    
    99   50  116 1    
   100   51  117 1    
   101   51  118 1    
   102   51  119 1    
   103   52   53 2    
   104   52   54 am   BACKBONE|DICT|INTERRES
   105   54   55 1    
   106   54  120 1    
   107   55   56 1    
   108   55   57 1    
   109   55  121 1    
   110   56  122 1    
   111   56  123 1    
   112   56  124 1    
   113   57   58 2    
   114   57   59 am   BACKBONE|DICT|INTERRES
   115   59   60 1    
   116   59  125 1    
   117   60   61 1    
   118   60   62 1    
   119   60  126 1    
   120   61  127 1    
   121   61  128 1    
   122   61  129 1    
   123   62   63 2    
   124   62   64 am   BACKBONE|DICT|INTERRES
   125   64   65 1    
   126   64  130 1    
   127   65   66 1    
   128   65   69 1    
   129   65  131 1    
   130   66   67 am   BACKBONE|DICT|INTERRES
   131   66   68 2    
   132   67  132 1    
   133   67  133 1    
   134   69   70 1    
   135   69  134 1    
   136   69  135 1    
   137   70   71 1    
   138   71  136 1    
   139   71  137 1    
@<TRIPOS>SUBSTRUCTURE
     1 UNK         1 GROUP             0       ****    0 ROOT    
