@<TRIPOS>MOLECULE
3R137
137   139    1
SMALL
USER_CHARGES


@<TRIPOS>ATOM
      1 CA         28.4238   -4.3501    1.2148 C.3       0 UNK        -0.2020 
      2 C          28.1287   -3.3713    0.0890 C.2       0 UNK         0.4855 
      3 O          27.6491   -3.7850   -0.9665 O.2       0 UNK        -0.5197 
      4 N          28.4091   -2.0785    0.3087 N.am      1 UNK        -0.4892 
      5 CA         28.2345   -0.9334   -0.6047 C.3       1 UNK         0.0835 
      6 C6         29.0285   -1.0508   -1.9349 C.3       12 UNK        -0.0855 
      7 S7         30.8365   -1.0483   -1.6673 S.3       12 UNK        -0.2931 
      8 C8         31.2877   -2.8073   -1.8315 C.3       12 UNK         0.0378 
      9 C9         31.3255   -3.2625   -3.2828 C.ar      12 UNK        -0.0802 
     10 C10        32.4864   -3.0918   -4.0417 C.ar      12 UNK        -0.0944 
     11 C11        32.5416   -3.5340   -5.3667 C.ar      12 UNK        -0.0787 
     12 C12        31.4076   -4.1212   -5.9399 C.ar      12 UNK        -0.0862 
     13 C13        30.2287   -4.2802   -5.2009 C.ar      12 UNK        -0.0733 
     14 C14        30.2108   -3.8766   -3.8594 C.ar      12 UNK        -0.0832 
     15 C15        29.0005   -4.8935   -5.8812 C.3       12 UNK         0.0240 
     16 S16        27.3796   -4.4105   -5.1752 S.3       12 UNK        -0.2522 
     17 C17        27.4310   -2.5941   -5.3162 C.3       12 UNK        -0.0967 
     18 CA         26.5288   -2.0527   -6.4511 C.3       5 UNK         0.0660 
     19 N          25.1048   -2.1727   -6.1516 N.am      5 UNK        -0.4015 
     20 C          24.1449   -2.3244   -7.0737 C.2       4 UNK         0.4946 
     21 O          24.3639   -2.5211   -8.2697 O.2       4 UNK        -0.5353 
     22 CA         22.6860   -2.2237   -6.5900 C.3       4 UNK         0.0277 
     23 CB         22.1347   -3.6189   -6.2538 C.3       4 UNK        -0.1981 
     24 N          22.5101   -1.3421   -5.4322 N.am      4 UNK        -0.4209 
     25 C          22.7471   -0.0218   -5.4264 C.2       3 UNK         0.4942 
     26 O          23.0986    0.6199   -6.4169 O.2       3 UNK        -0.5208 
     27 CA         22.6173    0.6951   -4.0699 C.3       3 UNK         0.0250 
     28 CB         21.1735    1.1771   -3.8566 C.3       3 UNK        -0.1990 
     29 N          23.0446   -0.0998   -2.9084 N.am      3 UNK        -0.4232 
     30 C          24.2411   -0.6876   -2.7616 C.2       2 UNK         0.4993 
     31 O          25.1087   -0.7032   -3.6373 O.2       2 UNK        -0.5286 
     32 CA         24.4853   -1.4358   -1.4419 C.3       2 UNK         0.0209 
     33 CB         23.8669   -2.8419   -1.5089 C.3       2 UNK        -0.1931 
     34 N          25.9121   -1.5703   -1.1400 N.am      2 UNK        -0.4546 
     35 C          26.7540   -0.5688   -0.8570 C.2       1 UNK         0.5154 
     36 O          26.3996    0.6072   -0.7582 O.2       1 UNK        -0.5181 
     37 C          26.8591   -0.5801   -6.7324 C.2       5 UNK         0.5014 
     38 O          27.3864   -0.2774   -7.8010 O.2       5 UNK        -0.5248 
     39 N          26.5591    0.3059   -5.7702 N.am      6 UNK        -0.4434 
     40 CA         26.9904    1.7096   -5.7098 C.3       6 UNK         0.0363 
     41 CB         26.4483    2.3487   -4.4223 C.3       6 UNK        -0.1936 
     42 C          26.6391    2.5766   -6.9327 C.2       6 UNK         0.5081 
     43 O          27.3132    3.5798   -7.1665 O.2       6 UNK        -0.5248 
     44 N          25.6265    2.1691   -7.7087 N.am      7 UNK        -0.4718 
     45 CA         25.2775    2.7527   -9.0054 C.3       7 UNK         0.0273 
     46 CB         23.9554    2.1333   -9.4866 C.3       7 UNK        -0.1935 
     47 C          26.3675    2.5953  -10.0881 C.2       7 UNK         0.5018 
     48 O          26.3857    3.3992  -11.0217 O.2       7 UNK        -0.5186 
     49 N          27.2361    1.5794   -9.9656 N.am      8 UNK        -0.4240 
     50 CA         28.2973    1.2675  -10.9308 C.3       8 UNK         0.0235 
     51 CB         27.8514    0.0752  -11.7946 C.3       8 UNK        -0.2000 
     52 C          29.6635    0.9772  -10.2836 C.2       8 UNK         0.4941 
     53 O          30.6769    1.0736  -10.9788 O.2       8 UNK        -0.5273 
     54 N          29.6924    0.6029   -8.9969 N.am      9 UNK        -0.4262 
     55 CA         30.8833    0.2016   -8.2451 C.3       9 UNK         0.0264 
     56 CB         30.4570   -0.5179   -6.9515 C.3       9 UNK        -0.1955 
     57 C          31.8577    1.3601   -7.9653 C.2       9 UNK         0.5031 
     58 O          31.9419    1.8455   -6.8360 O.2       9 UNK        -0.5390 
     59 N          32.6137    1.7487   -8.9987 N.am      10 UNK        -0.4204 
     60 CA         33.8179    2.5813   -8.8939 C.3       10 UNK         0.0237 
     61 CB         34.1520    3.1544  -10.2809 C.3       10 UNK        -0.1985 
     62 C          35.0245    1.8065   -8.3195 C.2       10 UNK         0.4970 
     63 O          36.0077    2.4296   -7.9172 O.2       10 UNK        -0.4914 
     64 N          34.9269    0.4708   -8.3074 N.am      11 UNK        -0.4285 
     65 CA         35.8514   -0.4915   -7.6966 C.3       11 UNK         0.1007 
     66 C          36.0831   -0.2781   -6.1725 C.2       11 UNK         0.5703 
     67 N          37.2215   -0.7223   -5.6565 N.am      11 UNK        -0.7361 
     68 O          35.2385    0.2477   -5.4505 O.2       11 UNK        -0.4986 
     69 C69        35.4025   -1.9466   -8.0147 C.3       12 UNK        -0.0947 
     70 S70        33.6554   -2.2915   -7.5899 S.3       12 UNK        -0.2240 
     71 C71        33.8365   -3.4005   -6.1604 C.3       12 UNK         0.0194 
     72 H72        29.1273   -5.1095    0.8747 H         1 UNK         0.0906 
     73 H73        27.5071   -4.8501    1.5262 H         1 UNK         0.0906 
     74 H74        28.8538   -3.8555    2.0856 H         1 UNK         0.0906 
     75 H75        28.7806   -1.8234    1.2138 H         1 UNK         0.3140 
     76 H76        28.6472   -0.0785   -0.0654 H         1 UNK         0.1085 
     77 H77        28.8054   -0.2020   -2.5849 H         1 UNK         0.0836 
     78 H78        28.7269   -1.9338   -2.4952 H         1 UNK         0.0836 
     79 H79        32.2705   -2.9544   -1.3811 H         1 UNK         0.0731 
     80 H80        30.6032   -3.4277   -1.2548 H         1 UNK         0.0731 
     81 H81        33.3532   -2.6262   -3.5923 H         1 UNK         0.1312 
     82 H82        31.4457   -4.4502   -6.9696 H         1 UNK         0.1406 
     83 H83        29.3219   -4.0240   -3.2612 H         1 UNK         0.1631 
     84 H84        29.0868   -5.9797   -5.8361 H         1 UNK         0.0717 
     85 H85        28.9962   -4.6272   -6.9395 H         1 UNK         0.0717 
     86 H86        27.1379   -2.1776   -4.3517 H         1 UNK         0.0934 
     87 H87        28.4641   -2.2789   -5.4657 H         1 UNK         0.0934 
     88 H88        26.7586   -2.6154   -7.3589 H         1 UNK         0.0739 
     89 H89        24.8383   -1.9554   -5.1982 H         1 UNK         0.3093 
     90 H90        22.0981   -1.8103   -7.4124 H         1 UNK         0.0818 
     91 H91        22.2286   -4.2909   -7.1082 H         1 UNK         0.0819 
     92 H92        22.6700   -4.0758   -5.4203 H         1 UNK         0.0819 
     93 H93        21.0770   -3.5767   -5.9930 H         1 UNK         0.0819 
     94 H94        22.2211   -1.7762   -4.5679 H         1 UNK         0.3041 
     95 H95        23.2595    1.5752   -4.1098 H         1 UNK         0.0784 
     96 H96        20.8374    1.7871   -4.6966 H         1 UNK         0.0793 
     97 H97        20.4776    0.3426   -3.7610 H         1 UNK         0.0793 
     98 H98        21.0876    1.7915   -2.9601 H         1 UNK         0.0793 
     99 H99        22.3841   -0.1590   -2.1462 H         1 UNK         0.3024 
    100 H100       24.0196   -0.8722   -0.6305 H         1 UNK         0.1171 
    101 H101       24.3127   -3.4392   -2.3059 H         1 UNK         0.0786 
    102 H102       24.0068   -3.3806   -0.5714 H         1 UNK         0.0786 
    103 H103       22.7932   -2.7953   -1.6955 H         1 UNK         0.0786 
    104 H104       26.3189   -2.5001   -1.2102 H         1 UNK         0.2977 
    105 H105       26.0683   -0.0393   -4.9441 H         1 UNK         0.3127 
    106 H106       28.0797    1.6969   -5.6417 H         1 UNK         0.0770 
    107 H107       26.8299    3.3631   -4.2991 H         1 UNK         0.0814 
    108 H108       25.3613    2.4105   -4.4350 H         1 UNK         0.0814 
    109 H109       26.7430    1.7824   -3.5381 H         1 UNK         0.0814 
    110 H110       25.0908    1.3627   -7.4112 H         1 UNK         0.2983 
    111 H111       25.1223    3.8234   -8.8569 H         1 UNK         0.0947 
    112 H112       24.0420    1.0541   -9.6203 H         1 UNK         0.0806 
    113 H113       23.6474    2.5588  -10.4427 H         1 UNK         0.0806 
    114 H114       23.1495    2.3178   -8.7758 H         1 UNK         0.0806 
    115 H115       27.1437    0.9559   -9.1669 H         1 UNK         0.3000 
    116 H116       28.4591    2.1225  -11.5907 H         1 UNK         0.0850 
    117 H117       28.6152   -0.1869  -12.5281 H         1 UNK         0.0810 
    118 H118       26.9395    0.3055  -12.3458 H         1 UNK         0.0810 
    119 H119       27.6615   -0.8108  -11.1871 H         1 UNK         0.0810 
    120 H120       28.8086    0.4628   -8.5125 H         1 UNK         0.3040 
    121 H121       31.4218   -0.5306   -8.8504 H         1 UNK         0.0766 
    122 H122       31.3236   -0.8072   -6.3553 H         1 UNK         0.0812 
    123 H123       29.9068   -1.4313   -7.1753 H         1 UNK         0.0812 
    124 H124       29.8324    0.1150   -6.3217 H         1 UNK         0.0812 
    125 H125       32.3686    1.3882   -9.9167 H         1 UNK         0.3205 
    126 H126       33.6091    3.4130   -8.2176 H         1 UNK         0.0754 
    127 H127       35.0243    3.8080  -10.2342 H         1 UNK         0.0769 
    128 H128       33.3256    3.7469  -10.6744 H         1 UNK         0.0769 
    129 H129       34.3729    2.3659  -11.0016 H         1 UNK         0.0769 
    130 H130       34.0692    0.0646   -8.6461 H         1 UNK         0.2981 
    131 H131       36.8153   -0.3293   -8.1824 H         1 UNK         0.0541 
    132 H132       37.3883   -0.6056   -4.6693 H         1 UNK         0.3459 
    133 H133       37.9205   -1.1644   -6.2330 H         1 UNK         0.3459 
    134 H134       36.0569   -2.6749   -7.5321 H         1 UNK         0.0612 
    135 H135       35.5135   -2.1273   -9.0849 H         1 UNK         0.0612 
    136 H136       34.6360   -3.0256   -5.5194 H         1 UNK         0.0624 
    137 H137       34.1529   -4.3846   -6.5084 H         1 UNK         0.0624 
@<TRIPOS>BOND
     1    1    2 1    
     2    1   72 1    
     3    1   73 1    
     4    1   74 1    
     5    2    3 2    
     6    2    4 am   BACKBONE|DICT|INTERRES
     7    4    5 1    
     8    4   75 1    
     9    5    6 1    
    10    5   35 1    
    11    5   76 1    
    12    6    7 1    
    13    6   77 1    
    14    6   78 1    
    15    7    8 1    
    16    8    9 1    
    17    8   79 1    
    18    8   80 1    
    19    9   10 ar   
    20    9   14 ar   
    21   10   11 ar   
    22   10   81 1    
    23   11   12 ar   
    24   11   71 1    
    25   12   13 ar   
    26   12   82 1    
    27   13   14 ar   
    28   13   15 1    
    29   14   83 1    
    30   15   16 1    
    31   15   84 1    
    32   15   85 1    
    33   16   17 1    
    34   17   18 1    
    35   17   86 1    
    36   17   87 1    
    37   18   19 1    
    38   18   37 1    
    39   18   88 1    
    40   19   20 am   BACKBONE|DICT|INTERRES
    41   19   89 1    
    42   20   21 2    
    43   20   22 1    
    44   22   23 1    
    45   22   24 1    
    46   22   90 1    
    47   23   91 1    
    48   23   92 1    
    49   23   93 1    
    50   24   25 am   BACKBONE|DICT|INTERRES
    51   24   94 1    
    52   25   26 2    
    53   25   27 1    
    54   27   28 1    
    55   27   29 1    
    56   27   95 1    
    57   28   96 1    
    58   28   97 1    
    59   28   98 1    
    60   29   30 am   BACKBONE|DICT|INTERRES
    61   29   99 1    
    62   30   31 2    
    63   30   32 1    
    64   32   33 1    
    65   32   34 1    
    66   32  100 1    
    67   33  101 1    
    68   33  102 1    
    69   33  103 1    
    70   34   35 am   BACKBONE|DICT|INTERRES
    71   34  104 1    
    72   35   36 2    
    73   37   38 2    
    74   37   39 am   BACKBONE|DICT|INTERRES
    75   39   40 1    
    76   39  105 1    
    77   40   41 1    
    78   40   42 1    
    79   40  106 1    
    80   41  107 1    
    81   41  108 1    
    82   41  109 1    
    83   42   43 2    
    84   42   44 am   BACKBONE|DICT|INTERRES
    85   44   45 1    
    86   44  110 1    
    87   45   46 1    
    88   45   47 1    
    89   45  111 1    
    90   46  112 1    
    91   46  113 1    
    92   46  114 1    
    93   47   48 2    
    94   47   49 am   BACKBONE|DICT|INTERRES
    95   49   50 1    
    96   49  115 1    
    97   50   51 1    
    98   50   52 1    
    99   50  116 1    
   100   51  117 1    
   101   51  118 1    
   102   51  119 1    
   103   52   53 2    
   104   52   54 am   BACKBONE|DICT|INTERRES
   105   54   55 1    
   106   54  120 1    
   107   55   56 1    
   108   55   57 1    
   109   55  121 1    
   110   56  122 1    
   111   56  123 1    
   112   56  124 1    
   113   57   58 2    
   114   57   59 am   BACKBONE|DICT|INTERRES
   115   59   60 1    
   116   59  125 1    
   117   60   61 1    
   118   60   62 1    
   119   60  126 1    
   120   61  127 1    
   121   61  128 1    
   122   61  129 1    
   123   62   63 2    
   124   62   64 am   BACKBONE|DICT|INTERRES
   125   64   65 1    
   126   64  130 1    
   127   65   66 1    
   128   65   69 1    
   129   65  131 1    
   130   66   67 am   BACKBONE|DICT|INTERRES
   131   66   68 2    
   132   67  132 1    
   133   67  133 1    
   134   69   70 1    
   135   69  134 1    
   136   69  135 1    
   137   70   71 1    
   138   71  136 1    
   139   71  137 1    
@<TRIPOS>SUBSTRUCTURE
     1 UNK         1 GROUP             0       ****    0 ROOT    
