@<TRIPOS>MOLECULE
3R137
137   139    1
SMALL
USER_CHARGES


@<TRIPOS>ATOM
      1 CA         30.0033   -0.5765    1.6250 C.3       0 UNK        -0.2020 
      2 C          29.5411   -0.9200    0.2170 C.2       0 UNK         0.4855 
      3 O          29.6738   -0.0955   -0.6869 O.2       0 UNK        -0.5197 
      4 N          29.0070   -2.1337    0.0269 N.am      1 UNK        -0.4892 
      5 CA         28.5012   -2.6450   -1.2557 C.3       1 UNK         0.0835 
      6 C6         28.2697   -4.1814   -1.2215 C.3       12 UNK        -0.0855 
      7 S7         29.7358   -5.0958   -0.6040 S.3       12 UNK        -0.2931 
      8 C8         30.4378   -5.8850   -2.0948 C.3       12 UNK         0.0378 
      9 C9         30.4983   -4.9419   -3.2875 C.ar      12 UNK        -0.0802 
     10 C10        31.2098   -3.7404   -3.2114 C.ar      12 UNK        -0.0944 
     11 C11        31.1528   -2.8115   -4.2547 C.ar      12 UNK        -0.0787 
     12 C12        30.4133   -3.1241   -5.4018 C.ar      12 UNK        -0.0862 
     13 C13        29.7427   -4.3462   -5.5126 C.ar      12 UNK        -0.0733 
     14 C14        29.7913   -5.2515   -4.4513 C.ar      12 UNK        -0.0832 
     15 C15        28.9594   -4.6884   -6.7733 C.3       12 UNK         0.0240 
     16 S16        27.1893   -5.0056   -6.4589 S.3       12 UNK        -0.2522 
     17 C17        26.6166   -3.4477   -5.7015 C.3       12 UNK        -0.0967 
     18 CA         26.4016   -2.3170   -6.7453 C.3       5 UNK         0.0660 
     19 N          25.1264   -1.6100   -6.5679 N.am      5 UNK        -0.4015 
     20 C          24.6533   -0.6622   -7.3930 C.2       4 UNK         0.4946 
     21 O          25.2829   -0.2129   -8.3495 O.2       4 UNK        -0.5353 
     22 CA         23.2346   -0.1215   -7.1459 C.3       4 UNK         0.0277 
     23 CB         22.2527   -0.7288   -8.1613 C.3       4 UNK        -0.1981 
     24 N          22.7151   -0.3313   -5.7927 N.am      4 UNK        -0.4209 
     25 C          23.1914    0.2644   -4.6927 C.2       3 UNK         0.4942 
     26 O          24.1818    0.9990   -4.6926 O.2       3 UNK        -0.5208 
     27 CA         22.4167    0.0459   -3.3797 C.3       3 UNK         0.0250 
     28 CB         21.3804   -1.1032   -3.4154 C.3       3 UNK        -0.1990 
     29 N          23.3373   -0.0803   -2.2474 N.am      3 UNK        -0.4232 
     30 C          24.1825   -1.0884   -1.9901 C.2       2 UNK         0.4993 
     31 O          24.2072   -2.1564   -2.6077 O.2       2 UNK        -0.5286 
     32 CA         25.1267   -0.8434   -0.7981 C.3       2 UNK         0.0209 
     33 CB         24.3636   -0.9949    0.5303 C.3       2 UNK        -0.1931 
     34 N          26.3162   -1.6974   -0.7416 N.am      2 UNK        -0.4546 
     35 C          27.2372   -1.8803   -1.7002 C.2       1 UNK         0.5154 
     36 O          27.1628   -1.4249   -2.8429 O.2       1 UNK        -0.5181 
     37 C          27.6087   -1.3619   -6.8033 C.2       5 UNK         0.5014 
     38 O          28.3558   -1.3904   -7.7830 O.2       5 UNK        -0.5248 
     39 N          27.7565   -0.5110   -5.7768 N.am      6 UNK        -0.4434 
     40 CA         28.8265    0.4856   -5.6800 C.3       6 UNK         0.0363 
     41 CB         28.7451    1.2096   -4.3274 C.3       6 UNK        -0.1936 
     42 C          28.8365    1.5002   -6.8337 C.2       6 UNK         0.5081 
     43 O          29.9158    1.8931   -7.2760 O.2       6 UNK        -0.5248 
     44 N          27.6452    1.8830   -7.3128 N.am      7 UNK        -0.4718 
     45 CA         27.4649    2.7728   -8.4593 C.3       7 UNK         0.0273 
     46 CB         26.0221    3.3036   -8.4832 C.3       7 UNK        -0.1935 
     47 C          27.8231    2.0858   -9.7863 C.2       7 UNK         0.5018 
     48 O          28.5429    2.6759  -10.5916 O.2       7 UNK        -0.5186 
     49 N          27.3354    0.8519   -9.9809 N.am      8 UNK        -0.4240 
     50 CA         27.5738    0.0319  -11.1714 C.3       8 UNK         0.0235 
     51 CB         26.6733   -1.2136  -11.1299 C.3       8 UNK        -0.2000 
     52 C          29.0466   -0.3710  -11.3403 C.2       8 UNK         0.4941 
     53 O          29.5704   -0.2913  -12.4522 O.2       8 UNK        -0.5273 
     54 N          29.6907   -0.7793  -10.2387 N.am      9 UNK        -0.4262 
     55 CA         31.1121   -1.1333  -10.2025 C.3       9 UNK         0.0264 
     56 CB         31.3742   -2.0112   -8.9717 C.3       9 UNK        -0.1955 
     57 C          32.0471    0.0894  -10.1849 C.2       9 UNK         0.5031 
     58 O          33.2329   -0.0713  -10.4778 O.2       9 UNK        -0.5390 
     59 N          31.5107    1.2671   -9.8286 N.am      10 UNK        -0.4204 
     60 CA         32.2061    2.5416   -9.6184 C.3       10 UNK         0.0237 
     61 CB         32.7825    3.0865  -10.9429 C.3       10 UNK        -0.1985 
     62 C          33.2487    2.4429   -8.4879 C.2       10 UNK         0.4970 
     63 O          34.4130    2.7994   -8.6826 O.2       10 UNK        -0.4914 
     64 N          32.8059    1.9347   -7.3309 N.am      11 UNK        -0.4285 
     65 CA         33.6139    1.7899   -6.1115 C.3       11 UNK         0.1007 
     66 C          34.0309    3.1614   -5.5118 C.2       11 UNK         0.5703 
     67 N          35.2115    3.2427   -4.9131 N.am      11 UNK        -0.7361 
     68 O          33.2811    4.1360   -5.5468 O.2       11 UNK        -0.4986 
     69 C69        32.8913    0.9296   -5.0431 C.3       12 UNK        -0.0947 
     70 S70        32.6094   -0.7896   -5.5772 S.3       12 UNK        -0.2240 
     71 C71        31.8104   -1.4450   -4.0749 C.3       12 UNK         0.0194 
     72 H72        31.0677   -0.3431    1.6233 H         1 UNK         0.0906 
     73 H73        29.4638    0.2953    1.9942 H         1 UNK         0.0906 
     74 H74        29.8377   -1.3981    2.3217 H         1 UNK         0.0906 
     75 H75        28.9649   -2.7846    0.7986 H         1 UNK         0.3140 
     76 H76        29.2595   -2.4299   -2.0082 H         1 UNK         0.1085 
     77 H77        27.9890   -4.5494   -2.2100 H         1 UNK         0.0836 
     78 H78        27.4317   -4.4263   -0.5662 H         1 UNK         0.0836 
     79 H79        31.4432   -6.2423   -1.8685 H         1 UNK         0.0731 
     80 H80        29.8431   -6.7694   -2.3292 H         1 UNK         0.0731 
     81 H81        31.7478   -3.5000   -2.3043 H         1 UNK         0.1312 
     82 H82        30.3455   -2.4076   -6.2053 H         1 UNK         0.1406 
     83 H83        29.2475   -6.1839   -4.5238 H         1 UNK         0.1631 
     84 H84        29.3961   -5.5814   -7.2222 H         1 UNK         0.0717 
     85 H85        29.0546   -3.9026   -7.5219 H         1 UNK         0.0717 
     86 H86        27.2944   -3.1594   -4.8955 H         1 UNK         0.0934 
     87 H87        25.6775   -3.6842   -5.1986 H         1 UNK         0.0934 
     88 H88        26.3272   -2.7720   -7.7357 H         1 UNK         0.0739 
     89 H89        24.5505   -1.8968   -5.7902 H         1 UNK         0.3093 
     90 H90        23.2751    0.9561   -7.3194 H         1 UNK         0.0818 
     91 H91        21.2634   -0.2786   -8.0771 H         1 UNK         0.0819 
     92 H92        22.5947   -0.5612   -9.1839 H         1 UNK         0.0819 
     93 H93        22.1463   -1.8060   -8.0269 H         1 UNK         0.0819 
     94 H94        21.8992   -0.9200   -5.7042 H         1 UNK         0.3041 
     95 H95        21.8638    0.9708   -3.2089 H         1 UNK         0.0784 
     96 H96        20.5777   -0.8912   -4.1227 H         1 UNK         0.0793 
     97 H97        21.8268   -2.0575   -3.6967 H         1 UNK         0.0793 
     98 H98        20.9115   -1.2358   -2.4402 H         1 UNK         0.0793 
     99 H99        23.4118    0.7496   -1.6755 H         1 UNK         0.3024 
    100 H100       25.4908    0.1833   -0.8786 H         1 UNK         0.1171 
    101 H101       24.9912   -0.7337    1.3828 H         1 UNK         0.0786 
    102 H102       24.0099   -2.0169    0.6739 H         1 UNK         0.0786 
    103 H103       23.4906   -0.3419    0.5673 H         1 UNK         0.0786 
    104 H104       26.5039   -2.1223    0.1540 H         1 UNK         0.2977 
    105 H105       27.1326   -0.5869   -4.9816 H         1 UNK         0.3127 
    106 H106       29.7730   -0.0519   -5.7249 H         1 UNK         0.0770 
    107 H107       27.7784    1.6946   -4.1870 H         1 UNK         0.0814 
    108 H108       29.5130    1.9802   -4.2473 H         1 UNK         0.0814 
    109 H109       28.8972    0.5198   -3.4973 H         1 UNK         0.0814 
    110 H110       26.8128    1.4748   -6.9116 H         1 UNK         0.2983 
    111 H111       28.1368    3.6255   -8.3364 H         1 UNK         0.0947 
    112 H112       25.8746    3.9899   -9.3181 H         1 UNK         0.0806 
    113 H113       25.7860    3.8502   -7.5700 H         1 UNK         0.0806 
    114 H114       25.2928    2.5001   -8.5903 H         1 UNK         0.0806 
    115 H115       26.7194    0.4519   -9.2739 H         1 UNK         0.3000 
    116 H116       27.2924    0.6264  -12.0431 H         1 UNK         0.0850 
    117 H117       26.8258   -1.8379  -12.0113 H         1 UNK         0.0810 
    118 H118       25.6188   -0.9381  -11.1052 H         1 UNK         0.0810 
    119 H119       26.8766   -1.8285  -10.2520 H         1 UNK         0.0810 
    120 H120       29.1704   -0.8705   -9.3661 H         1 UNK         0.3040 
    121 H121       31.3496   -1.7175  -11.0941 H         1 UNK         0.0766 
    122 H122       32.4177   -2.3253   -8.9238 H         1 UNK         0.0812 
    123 H123       31.1557   -1.4641   -8.0561 H         1 UNK         0.0812 
    124 H124       30.7615   -2.9121   -8.9850 H         1 UNK         0.0812 
    125 H125       30.5292    1.2733   -9.5842 H         1 UNK         0.3205 
    126 H126       31.4486    3.2486   -9.2762 H         1 UNK         0.0754 
    127 H127       33.2028    4.0831  -10.8032 H         1 UNK         0.0769 
    128 H128       32.0085    3.1650  -11.7066 H         1 UNK         0.0769 
    129 H129       33.5774    2.4512  -11.3347 H         1 UNK         0.0769 
    130 H130       31.8131    1.7352   -7.2432 H         1 UNK         0.2981 
    131 H131       34.5286    1.2672   -6.3989 H         1 UNK         0.0541 
    132 H132       35.8295    2.4473   -4.8675 H         1 UNK         0.3459 
    133 H133       35.4938    4.1199   -4.5046 H         1 UNK         0.3459 
    134 H134       31.9314    1.3780   -4.7808 H         1 UNK         0.0612 
    135 H135       33.4770    0.8929   -4.1225 H         1 UNK         0.0612 
    136 H136       32.5609   -1.4861   -3.2840 H         1 UNK         0.0624 
    137 H137       31.0459   -0.7451   -3.7366 H         1 UNK         0.0624 
@<TRIPOS>BOND
     1    1    2 1    
     2    1   72 1    
     3    1   73 1    
     4    1   74 1    
     5    2    3 2    
     6    2    4 am   BACKBONE|DICT|INTERRES
     7    4    5 1    
     8    4   75 1    
     9    5    6 1    
    10    5   35 1    
    11    5   76 1    
    12    6    7 1    
    13    6   77 1    
    14    6   78 1    
    15    7    8 1    
    16    8    9 1    
    17    8   79 1    
    18    8   80 1    
    19    9   10 ar   
    20    9   14 ar   
    21   10   11 ar   
    22   10   81 1    
    23   11   12 ar   
    24   11   71 1    
    25   12   13 ar   
    26   12   82 1    
    27   13   14 ar   
    28   13   15 1    
    29   14   83 1    
    30   15   16 1    
    31   15   84 1    
    32   15   85 1    
    33   16   17 1    
    34   17   18 1    
    35   17   86 1    
    36   17   87 1    
    37   18   19 1    
    38   18   37 1    
    39   18   88 1    
    40   19   20 am   BACKBONE|DICT|INTERRES
    41   19   89 1    
    42   20   21 2    
    43   20   22 1    
    44   22   23 1    
    45   22   24 1    
    46   22   90 1    
    47   23   91 1    
    48   23   92 1    
    49   23   93 1    
    50   24   25 am   BACKBONE|DICT|INTERRES
    51   24   94 1    
    52   25   26 2    
    53   25   27 1    
    54   27   28 1    
    55   27   29 1    
    56   27   95 1    
    57   28   96 1    
    58   28   97 1    
    59   28   98 1    
    60   29   30 am   BACKBONE|DICT|INTERRES
    61   29   99 1    
    62   30   31 2    
    63   30   32 1    
    64   32   33 1    
    65   32   34 1    
    66   32  100 1    
    67   33  101 1    
    68   33  102 1    
    69   33  103 1    
    70   34   35 am   BACKBONE|DICT|INTERRES
    71   34  104 1    
    72   35   36 2    
    73   37   38 2    
    74   37   39 am   BACKBONE|DICT|INTERRES
    75   39   40 1    
    76   39  105 1    
    77   40   41 1    
    78   40   42 1    
    79   40  106 1    
    80   41  107 1    
    81   41  108 1    
    82   41  109 1    
    83   42   43 2    
    84   42   44 am   BACKBONE|DICT|INTERRES
    85   44   45 1    
    86   44  110 1    
    87   45   46 1    
    88   45   47 1    
    89   45  111 1    
    90   46  112 1    
    91   46  113 1    
    92   46  114 1    
    93   47   48 2    
    94   47   49 am   BACKBONE|DICT|INTERRES
    95   49   50 1    
    96   49  115 1    
    97   50   51 1    
    98   50   52 1    
    99   50  116 1    
   100   51  117 1    
   101   51  118 1    
   102   51  119 1    
   103   52   53 2    
   104   52   54 am   BACKBONE|DICT|INTERRES
   105   54   55 1    
   106   54  120 1    
   107   55   56 1    
   108   55   57 1    
   109   55  121 1    
   110   56  122 1    
   111   56  123 1    
   112   56  124 1    
   113   57   58 2    
   114   57   59 am   BACKBONE|DICT|INTERRES
   115   59   60 1    
   116   59  125 1    
   117   60   61 1    
   118   60   62 1    
   119   60  126 1    
   120   61  127 1    
   121   61  128 1    
   122   61  129 1    
   123   62   63 2    
   124   62   64 am   BACKBONE|DICT|INTERRES
   125   64   65 1    
   126   64  130 1    
   127   65   66 1    
   128   65   69 1    
   129   65  131 1    
   130   66   67 am   BACKBONE|DICT|INTERRES
   131   66   68 2    
   132   67  132 1    
   133   67  133 1    
   134   69   70 1    
   135   69  134 1    
   136   69  135 1    
   137   70   71 1    
   138   71  136 1    
   139   71  137 1    
@<TRIPOS>SUBSTRUCTURE
     1 UNK         1 GROUP             0       ****    0 ROOT    
