@<TRIPOS>MOLECULE
3R137
137   139    1
SMALL
USER_CHARGES


@<TRIPOS>ATOM
      1 CA         25.5551   -5.2487   -2.5213 C.3       0 UNK        -0.2020 
      2 C          26.1611   -4.4785   -1.3586 C.2       0 UNK         0.4855 
      3 O          25.4843   -4.2505   -0.3560 O.2       0 UNK        -0.5197 
      4 N          27.4296   -4.0681   -1.4878 N.am      1 UNK        -0.4892 
      5 CA         28.1866   -3.3307   -0.4607 C.3       1 UNK         0.0835 
      6 C6         29.6842   -3.7353   -0.4186 C.3       12 UNK        -0.0855 
      7 S7         29.9106   -5.5489   -0.2898 S.3       12 UNK        -0.2931 
      8 C8         31.4043   -5.8682   -1.2930 C.3       12 UNK         0.0378 
      9 C9         31.3765   -5.1982   -2.6621 C.ar      12 UNK        -0.0802 
     10 C10        32.4302   -4.3601   -3.0429 C.ar      12 UNK        -0.0944 
     11 C11        32.4000   -3.6978   -4.2722 C.ar      12 UNK        -0.0787 
     12 C12        31.3114   -3.8827   -5.1245 C.ar      12 UNK        -0.0862 
     13 C13        30.2431   -4.6999   -4.7511 C.ar      12 UNK        -0.0733 
     14 C14        30.2916   -5.3781   -3.5290 C.ar      12 UNK        -0.0832 
     15 C15        29.0281   -4.8202   -5.6583 C.3       12 UNK         0.0240 
     16 S16        27.6434   -3.7948   -5.0654 S.3       12 UNK        -0.2522 
     17 C17        28.2395   -2.0869   -5.3294 C.3       12 UNK        -0.0967 
     18 CA         27.5478   -1.3914   -6.5269 C.3       5 UNK         0.0660 
     19 N          26.0863   -1.3777   -6.3924 N.am      5 UNK        -0.4015 
     20 C          25.2386   -1.0808   -7.3879 C.2       4 UNK         0.4946 
     21 O          25.5999   -0.7863   -8.5261 O.2       4 UNK        -0.5353 
     22 CA         23.7362   -1.0598   -7.0557 C.3       4 UNK         0.0277 
     23 CB         23.1341   -2.4646   -7.2153 C.3       4 UNK        -0.1981 
     24 N          23.4339   -0.5483   -5.7169 N.am      4 UNK        -0.4209 
     25 C          23.7945    0.6530   -5.2443 C.2       3 UNK         0.4942 
     26 O          24.4097    1.4907   -5.9031 O.2       3 UNK        -0.5208 
     27 CA         23.4713    0.9592   -3.7720 C.3       3 UNK         0.0250 
     28 CB         22.3541    0.0692   -3.1801 C.3       3 UNK        -0.1990 
     29 N          24.6687    0.9004   -2.9227 N.am      3 UNK        -0.4232 
     30 C          25.5153   -0.1325   -2.7896 C.2       2 UNK         0.4993 
     31 O          25.4507   -1.1651   -3.4666 O.2       2 UNK        -0.5286 
     32 CA         26.6038   -0.0130   -1.7079 C.3       2 UNK         0.0209 
     33 CB         26.0933    0.7026   -0.4344 C.3       2 UNK        -0.1931 
     34 N          27.0326   -1.3758   -1.4083 N.am      2 UNK        -0.4546 
     35 C          28.0090   -1.7991   -0.5983 C.2       1 UNK         0.5154 
     36 O          28.7533   -1.0391    0.0236 O.2       1 UNK        -0.5181 
     37 C          28.1159    0.0292   -6.7314 C.2       5 UNK         0.5014 
     38 O          29.0821    0.2007   -7.4797 O.2       5 UNK        -0.5248 
     39 N          27.4946    1.0229   -6.0788 N.am      6 UNK        -0.4434 
     40 CA         27.8276    2.4393   -6.2198 C.3       6 UNK         0.0363 
     41 CB         27.2934    3.2259   -5.0118 C.3       6 UNK        -0.1936 
     42 C          27.2905    3.0120   -7.5397 C.2       6 UNK         0.5081 
     43 O          28.0132    3.7463   -8.2106 O.2       6 UNK        -0.5248 
     44 N          26.0609    2.6315   -7.9173 N.am      7 UNK        -0.4718 
     45 CA         25.4204    2.9962   -9.1865 C.3       7 UNK         0.0273 
     46 CB         23.9590    2.5224   -9.1826 C.3       7 UNK        -0.1935 
     47 C          26.1666    2.4487  -10.4160 C.2       7 UNK         0.5018 
     48 O          26.2952    3.1608  -11.4122 O.2       7 UNK        -0.5186 
     49 N          26.6837    1.2164  -10.3074 N.am      8 UNK        -0.4240 
     50 CA         27.5712    0.5892  -11.2915 C.3       8 UNK         0.0235 
     51 CB         27.6304   -0.9233  -11.0178 C.3       8 UNK        -0.2000 
     52 C          28.9960    1.1773  -11.3049 C.2       8 UNK         0.4941 
     53 O          29.7465    0.8818  -12.2358 O.2       8 UNK        -0.5273 
     54 N          29.3490    1.9691  -10.2788 N.am      9 UNK        -0.4262 
     55 CA         30.6585    2.5780  -10.0228 C.3       9 UNK         0.0264 
     56 CB         30.9830    3.6511  -11.0841 C.3       9 UNK        -0.1955 
     57 C          31.7759    1.5310   -9.8548 C.2       9 UNK         0.5031 
     58 O          32.8848    1.7281  -10.3563 O.2       9 UNK        -0.5390 
     59 N          31.4625    0.4300   -9.1554 N.am      10 UNK        -0.4204 
     60 CA         32.3863   -0.6814   -8.9160 C.3       10 UNK         0.0237 
     61 CB         31.5916   -1.9064   -8.4412 C.3       10 UNK        -0.1985 
     62 C          33.5000   -0.3213   -7.9176 C.2       10 UNK         0.4970 
     63 O          34.6476   -0.7197   -8.1223 O.2       10 UNK        -0.4914 
     64 N          33.1419    0.4367   -6.8752 N.am      11 UNK        -0.4285 
     65 CA         34.0510    0.9506   -5.8385 C.3       11 UNK         0.1007 
     66 C          33.5167    2.2315   -5.1308 C.2       11 UNK         0.5703 
     67 N          32.4959    2.9049   -5.6534 N.am      11 UNK        -0.7361 
     68 O          34.0489    2.6445   -4.1027 O.2       11 UNK        -0.4986 
     69 C69        34.5499   -0.1520   -4.8585 C.3       12 UNK        -0.0947 
     70 S70        33.2037   -1.0784   -4.0451 S.3       12 UNK        -0.2240 
     71 C71        33.5223   -2.7557   -4.6712 C.3       12 UNK         0.0194 
     72 H72        24.9892   -4.5751   -3.1630 H         1 UNK         0.0906 
     73 H73        24.8802   -6.0205   -2.1553 H         1 UNK         0.0906 
     74 H74        26.3211   -5.7349   -3.1230 H         1 UNK         0.0906 
     75 H75        27.9300   -4.2549   -2.3460 H         1 UNK         0.3140 
     76 H76        27.7707   -3.5820    0.5176 H         1 UNK         0.1085 
     77 H77        30.1780   -3.2790    0.4415 H         1 UNK         0.0836 
     78 H78        30.1971   -3.3430   -1.2969 H         1 UNK         0.0836 
     79 H79        32.2740   -5.5400   -0.7216 H         1 UNK         0.0731 
     80 H80        31.5154   -6.9448   -1.4281 H         1 UNK         0.0731 
     81 H81        33.2666   -4.2033   -2.3752 H         1 UNK         0.1312 
     82 H82        31.2826   -3.3652   -6.0698 H         1 UNK         0.1406 
     83 H83        29.4689   -6.0155   -3.2340 H         1 UNK         0.1631 
     84 H84        28.7050   -5.8615   -5.6971 H         1 UNK         0.0717 
     85 H85        29.2745   -4.5376   -6.6832 H         1 UNK         0.0717 
     86 H86        28.0623   -1.5302   -4.4072 H         1 UNK         0.0934 
     87 H87        29.3201   -2.0882   -5.4682 H         1 UNK         0.0934 
     88 H88        27.7886   -1.9608   -7.4274 H         1 UNK         0.0739 
     89 H89        25.7180   -1.5760   -5.4668 H         1 UNK         0.3093 
     90 H90        23.2497   -0.3975   -7.7736 H         1 UNK         0.0818 
     91 H91        23.3273   -2.8599   -8.2138 H         1 UNK         0.0819 
     92 H92        23.5569   -3.1699   -6.4984 H         1 UNK         0.0819 
     93 H93        22.0526   -2.4521   -7.0782 H         1 UNK         0.0819 
     94 H94        22.9699   -1.1822   -5.0827 H         1 UNK         0.3041 
     95 H95        23.1185    1.9916   -3.7484 H         1 UNK         0.0784 
     96 H96        21.4518    0.1066   -3.7924 H         1 UNK         0.0793 
     97 H97        22.6554   -0.9753   -3.0906 H         1 UNK         0.0793 
     98 H98        22.0743    0.4115   -2.1836 H         1 UNK         0.0793 
     99 H99        24.8257    1.7151   -2.3463 H         1 UNK         0.3024 
    100 H100       27.4484    0.5350   -2.1297 H         1 UNK         0.1171 
    101 H101       25.8286    1.7411   -0.6350 H         1 UNK         0.0786 
    102 H102       25.2117    0.2088   -0.0231 H         1 UNK         0.0786 
    103 H103       26.8504    0.7296    0.3486 H         1 UNK         0.0786 
    104 H104       26.5064   -2.0735   -1.9230 H         1 UNK         0.2977 
    105 H105       26.6595    0.8063   -5.5529 H         1 UNK         0.3127 
    106 H106       28.9155    2.5390   -6.2304 H         1 UNK         0.0770 
    107 H107       26.2067    3.1783   -4.9387 H         1 UNK         0.0814 
    108 H108       27.5668    4.2793   -5.0852 H         1 UNK         0.0814 
    109 H109       27.7096    2.8487   -4.0777 H         1 UNK         0.0814 
    110 H110       25.5061    2.0760   -7.2686 H         1 UNK         0.2983 
    111 H111       25.4267    4.0861   -9.2558 H         1 UNK         0.0947 
    112 H112       23.8895    1.4356   -9.1410 H         1 UNK         0.0806 
    113 H113       23.4419    2.8473  -10.0864 H         1 UNK         0.0806 
    114 H114       23.4113    2.9266   -8.3309 H         1 UNK         0.0806 
    115 H115       26.4471    0.6574   -9.4908 H         1 UNK         0.3000 
    116 H116       27.1453    0.7434  -12.2852 H         1 UNK         0.0850 
    117 H117       28.2569   -1.4324  -11.7515 H         1 UNK         0.0810 
    118 H118       26.6396   -1.3750  -11.0703 H         1 UNK         0.0810 
    119 H119       28.0436   -1.1364  -10.0308 H         1 UNK         0.0810 
    120 H120       28.6459    2.1716   -9.5787 H         1 UNK         0.3040 
    121 H121       30.5744    3.0851   -9.0606 H         1 UNK         0.0766 
    122 H122       31.1349    3.2130  -12.0712 H         1 UNK         0.0812 
    123 H123       31.8932    4.1938  -10.8259 H         1 UNK         0.0812 
    124 H124       30.1805    4.3848  -11.1620 H         1 UNK         0.0812 
    125 H125       30.5358    0.3557   -8.7398 H         1 UNK         0.3205 
    126 H126       32.8644   -0.9369   -9.8646 H         1 UNK         0.0754 
    127 H127       32.2542   -2.7493   -8.2392 H         1 UNK         0.0769 
    128 H128       30.8748   -2.2295   -9.1969 H         1 UNK         0.0769 
    129 H129       31.0366   -1.6884   -7.5289 H         1 UNK         0.0769 
    130 H130       32.1688    0.6779   -6.7586 H         1 UNK         0.2981 
    131 H131       34.9355    1.3153   -6.3645 H         1 UNK         0.0541 
    132 H132       32.1758    3.7352   -5.1791 H         1 UNK         0.3459 
    133 H133       32.0919    2.6498   -6.5376 H         1 UNK         0.3459 
    134 H134       35.1909    0.2740   -4.0846 H         1 UNK         0.0612 
    135 H135       35.1902   -0.8509   -5.3986 H         1 UNK         0.0612 
    136 H136       33.6197   -2.7273   -5.7579 H         1 UNK         0.0624 
    137 H137       34.4758   -3.1149   -4.2807 H         1 UNK         0.0624 
@<TRIPOS>BOND
     1    1    2 1    
     2    1   72 1    
     3    1   73 1    
     4    1   74 1    
     5    2    3 2    
     6    2    4 am   BACKBONE|DICT|INTERRES
     7    4    5 1    
     8    4   75 1    
     9    5    6 1    
    10    5   35 1    
    11    5   76 1    
    12    6    7 1    
    13    6   77 1    
    14    6   78 1    
    15    7    8 1    
    16    8    9 1    
    17    8   79 1    
    18    8   80 1    
    19    9   10 ar   
    20    9   14 ar   
    21   10   11 ar   
    22   10   81 1    
    23   11   12 ar   
    24   11   71 1    
    25   12   13 ar   
    26   12   82 1    
    27   13   14 ar   
    28   13   15 1    
    29   14   83 1    
    30   15   16 1    
    31   15   84 1    
    32   15   85 1    
    33   16   17 1    
    34   17   18 1    
    35   17   86 1    
    36   17   87 1    
    37   18   19 1    
    38   18   37 1    
    39   18   88 1    
    40   19   20 am   BACKBONE|DICT|INTERRES
    41   19   89 1    
    42   20   21 2    
    43   20   22 1    
    44   22   23 1    
    45   22   24 1    
    46   22   90 1    
    47   23   91 1    
    48   23   92 1    
    49   23   93 1    
    50   24   25 am   BACKBONE|DICT|INTERRES
    51   24   94 1    
    52   25   26 2    
    53   25   27 1    
    54   27   28 1    
    55   27   29 1    
    56   27   95 1    
    57   28   96 1    
    58   28   97 1    
    59   28   98 1    
    60   29   30 am   BACKBONE|DICT|INTERRES
    61   29   99 1    
    62   30   31 2    
    63   30   32 1    
    64   32   33 1    
    65   32   34 1    
    66   32  100 1    
    67   33  101 1    
    68   33  102 1    
    69   33  103 1    
    70   34   35 am   BACKBONE|DICT|INTERRES
    71   34  104 1    
    72   35   36 2    
    73   37   38 2    
    74   37   39 am   BACKBONE|DICT|INTERRES
    75   39   40 1    
    76   39  105 1    
    77   40   41 1    
    78   40   42 1    
    79   40  106 1    
    80   41  107 1    
    81   41  108 1    
    82   41  109 1    
    83   42   43 2    
    84   42   44 am   BACKBONE|DICT|INTERRES
    85   44   45 1    
    86   44  110 1    
    87   45   46 1    
    88   45   47 1    
    89   45  111 1    
    90   46  112 1    
    91   46  113 1    
    92   46  114 1    
    93   47   48 2    
    94   47   49 am   BACKBONE|DICT|INTERRES
    95   49   50 1    
    96   49  115 1    
    97   50   51 1    
    98   50   52 1    
    99   50  116 1    
   100   51  117 1    
   101   51  118 1    
   102   51  119 1    
   103   52   53 2    
   104   52   54 am   BACKBONE|DICT|INTERRES
   105   54   55 1    
   106   54  120 1    
   107   55   56 1    
   108   55   57 1    
   109   55  121 1    
   110   56  122 1    
   111   56  123 1    
   112   56  124 1    
   113   57   58 2    
   114   57   59 am   BACKBONE|DICT|INTERRES
   115   59   60 1    
   116   59  125 1    
   117   60   61 1    
   118   60   62 1    
   119   60  126 1    
   120   61  127 1    
   121   61  128 1    
   122   61  129 1    
   123   62   63 2    
   124   62   64 am   BACKBONE|DICT|INTERRES
   125   64   65 1    
   126   64  130 1    
   127   65   66 1    
   128   65   69 1    
   129   65  131 1    
   130   66   67 am   BACKBONE|DICT|INTERRES
   131   66   68 2    
   132   67  132 1    
   133   67  133 1    
   134   69   70 1    
   135   69  134 1    
   136   69  135 1    
   137   70   71 1    
   138   71  136 1    
   139   71  137 1    
@<TRIPOS>SUBSTRUCTURE
     1 UNK         1 GROUP             0       ****    0 ROOT    
