@<TRIPOS>MOLECULE
3R137
137   139    1
SMALL
USER_CHARGES


@<TRIPOS>ATOM
      1 CA         30.7473    0.8363   -0.0700 C.3       0 UNK        -0.2020 
      2 C          29.9625   -0.1625   -0.9070 C.2       0 UNK         0.4855 
      3 O          29.5266    0.1711   -2.0086 O.2       0 UNK        -0.5197 
      4 N          29.7823   -1.3852   -0.3936 N.am      1 UNK        -0.4892 
      5 CA         29.0056   -2.4570   -1.0276 C.3       1 UNK         0.0835 
      6 C6         29.2211   -3.8197   -0.3210 C.3       12 UNK        -0.0855 
      7 S7         30.9758   -4.3017   -0.1753 S.3       12 UNK        -0.2931 
      8 C8         31.1385   -5.5549   -1.4842 C.3       12 UNK         0.0378 
      9 C9         31.3336   -4.9214   -2.8534 C.ar      12 UNK        -0.0802 
     10 C10        32.6002   -4.4679   -3.2326 C.ar      12 UNK        -0.0944 
     11 C11        32.8148   -3.9356   -4.5064 C.ar      12 UNK        -0.0787 
     12 C12        31.7416   -3.8420   -5.3993 C.ar      12 UNK        -0.0862 
     13 C13        30.4650   -4.2813   -5.0304 C.ar      12 UNK        -0.0733 
     14 C14        30.2697   -4.8272   -3.7563 C.ar      12 UNK        -0.0832 
     15 C15        29.3237   -4.2349   -6.0403 C.3       12 UNK         0.0240 
     16 S16        27.8269   -3.4146   -5.4006 S.3       12 UNK        -0.2522 
     17 C17        26.7106   -3.5934   -6.8432 C.3       12 UNK        -0.0967 
     18 CA         26.0999   -2.3031   -7.4651 C.3       5 UNK         0.0660 
     19 N          24.8559   -1.8777   -6.8181 N.am      5 UNK        -0.4015 
     20 C          23.8231   -1.3341   -7.4836 C.2       4 UNK         0.4946 
     21 O          23.7918   -1.2013   -8.7077 O.2       4 UNK        -0.5353 
     22 CA         22.6107   -0.8534   -6.6664 C.3       4 UNK         0.0277 
     23 CB         21.5673   -1.9759   -6.5452 C.3       4 UNK        -0.1981 
     24 N          22.9535   -0.3662   -5.3311 N.am      4 UNK        -0.4209 
     25 C          23.6789    0.7321   -5.0774 C.2       3 UNK         0.4942 
     26 O          24.1218    1.4827   -5.9466 O.2       3 UNK        -0.5208 
     27 CA         24.0134    0.9987   -3.5982 C.3       3 UNK         0.0250 
     28 CB         22.8905    1.8057   -2.9274 C.3       3 UNK        -0.1990 
     29 N          24.2768   -0.2222   -2.8224 N.am      3 UNK        -0.4232 
     30 C          25.2172   -1.1248   -3.1338 C.2       2 UNK         0.4993 
     31 O          25.9270   -1.0483   -4.1374 O.2       2 UNK        -0.5286 
     32 CA         25.3504   -2.3529   -2.2294 C.3       2 UNK         0.0209 
     33 CB         24.6763   -3.5705   -2.8837 C.3       2 UNK        -0.1931 
     34 N          26.7701   -2.6405   -2.0297 N.am      2 UNK        -0.4546 
     35 C          27.5002   -2.1146   -1.0397 C.2       1 UNK         0.5154 
     36 O          27.0185   -1.4287   -0.1324 O.2       1 UNK        -0.5181 
     37 C          27.0648   -1.1103   -7.5867 C.2       5 UNK         0.5014 
     38 O          27.6317   -0.9041   -8.6603 O.2       5 UNK        -0.5248 
     39 N          27.1878   -0.3097   -6.5161 N.am      6 UNK        -0.4434 
     40 CA         28.0336    0.8833   -6.4285 C.3       6 UNK         0.0363 
     41 CB         27.9270    1.4856   -5.0210 C.3       6 UNK        -0.1936 
     42 C          27.7164    1.9476   -7.4886 C.2       6 UNK         0.5081 
     43 O          28.6406    2.5960   -7.9754 O.2       6 UNK        -0.5248 
     44 N          26.4386    2.0652   -7.8770 N.am      7 UNK        -0.4718 
     45 CA         25.9646    2.9202   -8.9705 C.3       7 UNK         0.0273 
     46 CB         24.4347    2.8072   -9.0678 C.3       7 UNK        -0.1935 
     47 C          26.6097    2.6246  -10.3402 C.2       7 UNK         0.5018 
     48 O          26.6836    3.5333  -11.1686 O.2       7 UNK        -0.5186 
     49 N          27.0659    1.3821  -10.5512 N.am      8 UNK        -0.4240 
     50 CA         27.7944    0.9531  -11.7446 C.3       8 UNK         0.0235 
     51 CB         27.1710   -0.3486  -12.2764 C.3       8 UNK        -0.2000 
     52 C          29.2874    0.7493  -11.4452 C.2       8 UNK         0.4941 
     53 O          30.1254    1.1764  -12.2400 O.2       8 UNK        -0.5273 
     54 N          29.5967    0.0807  -10.3259 N.am      9 UNK        -0.4262 
     55 CA         30.9432   -0.3656   -9.9673 C.3       9 UNK         0.0264 
     56 CB         30.8306   -1.5427   -8.9810 C.3       9 UNK        -0.1955 
     57 C          31.8454    0.7245   -9.3699 C.2       9 UNK         0.5031 
     58 O          33.0586    0.5166   -9.3349 O.2       9 UNK        -0.5390 
     59 N          31.2679    1.8120   -8.8339 N.am      10 UNK        -0.4204 
     60 CA         31.9011    2.9087   -8.0748 C.3       10 UNK         0.0237 
     61 CB         32.9643    3.6450   -8.9140 C.3       10 UNK        -0.1985 
     62 C          32.4615    2.5005   -6.6949 C.2       10 UNK         0.4970 
     63 O          32.4531    3.3222   -5.7783 O.2       10 UNK        -0.4914 
     64 N          32.9240    1.2517   -6.5758 N.am      11 UNK        -0.4285 
     65 CA         33.4176    0.5736   -5.3715 C.3       11 UNK         0.1007 
     66 C          32.4294    0.6106   -4.1710 C.2       11 UNK         0.5703 
     67 N          31.1567    0.2974   -4.3779 N.am      11 UNK        -0.7361 
     68 O          32.8248    0.9352   -3.0541 O.2       11 UNK        -0.4986 
     69 C69        33.8296   -0.8721   -5.7523 C.3       12 UNK        -0.0947 
     70 S70        34.6373   -1.8258   -4.4253 S.3       12 UNK        -0.2240 
     71 C71        34.2207   -3.5251   -4.9281 C.3       12 UNK         0.0194 
     72 H72        31.0667    0.4110    0.8812 H         1 UNK         0.0906 
     73 H73        31.6352    1.1625   -0.6106 H         1 UNK         0.0906 
     74 H74        30.1346    1.7129    0.1382 H         1 UNK         0.0906 
     75 H75        30.1618   -1.6079    0.5152 H         1 UNK         0.3140 
     76 H76        29.3453   -2.5398   -2.0630 H         1 UNK         0.1085 
     77 H77        28.6727   -4.6089   -0.8387 H         1 UNK         0.0836 
     78 H78        28.8098   -3.7900    0.6904 H         1 UNK         0.0836 
     79 H79        32.0003   -6.1839   -1.2554 H         1 UNK         0.0731 
     80 H80        30.2748   -6.2216   -1.4790 H         1 UNK         0.0731 
     81 H81        33.4271   -4.5494   -2.5400 H         1 UNK         0.1312 
     82 H82        31.9068   -3.4536   -6.3945 H         1 UNK         0.1406 
     83 H83        29.2916   -5.1944   -3.4766 H         1 UNK         0.1631 
     84 H84        29.0753   -5.2569   -6.3298 H         1 UNK         0.0717 
     85 H85        29.6375   -3.7199   -6.9499 H         1 UNK         0.0717 
     86 H86        27.2573   -4.1177   -7.6288 H         1 UNK         0.0934 
     87 H87        25.9109   -4.2809   -6.5632 H         1 UNK         0.0934 
     88 H88        25.8509   -2.5795   -8.4925 H         1 UNK         0.0739 
     89 H89        24.8552   -1.8764   -5.8060 H         1 UNK         0.3093 
     90 H90        22.1580   -0.0240   -7.2145 H         1 UNK         0.0818 
     91 H91        20.6622   -1.6256   -6.0487 H         1 UNK         0.0819 
     92 H92        21.2723   -2.3416   -7.5300 H         1 UNK         0.0819 
     93 H93        21.9518   -2.8282   -5.9834 H         1 UNK         0.0819 
     94 H94        22.6341   -0.9167   -4.5476 H         1 UNK         0.3041 
     95 H95        24.9234    1.6008   -3.5738 H         1 UNK         0.0784 
     96 H96        22.6902    2.7262   -3.4779 H         1 UNK         0.0793 
     97 H97        21.9571    1.2431   -2.8828 H         1 UNK         0.0793 
     98 H98        23.1599    2.0921   -1.9106 H         1 UNK         0.0793 
     99 H99        23.7215   -0.3577   -1.9894 H         1 UNK         0.3024 
    100 H100       24.8657   -2.1571   -1.2700 H         1 UNK         0.1171 
    101 H101       23.6107   -3.3940   -3.0360 H         1 UNK         0.0786 
    102 H102       24.7701   -4.4576   -2.2570 H         1 UNK         0.0786 
    103 H103       25.1111   -3.8030   -3.8568 H         1 UNK         0.0786 
    104 H104       27.2331   -3.1244   -2.7870 H         1 UNK         0.2977 
    105 H105       26.7049   -0.5777   -5.6574 H         1 UNK         0.3127 
    106 H106       29.0630    0.5585   -6.5873 H         1 UNK         0.0770 
    107 H107       26.9281    1.8760   -4.8273 H         1 UNK         0.0814 
    108 H108       28.6327    2.3075   -4.8931 H         1 UNK         0.0814 
    109 H109       28.1489    0.7441   -4.2536 H         1 UNK         0.0814 
    110 H110       25.7324    1.5406   -7.3717 H         1 UNK         0.2983 
    111 H111       26.2192    3.9503   -8.7125 H         1 UNK         0.0947 
    112 H112       24.0448    3.4277   -9.8761 H         1 UNK         0.0806 
    113 H113       23.9536    3.1386   -8.1474 H         1 UNK         0.0806 
    114 H114       24.1186    1.7808   -9.2600 H         1 UNK         0.0806 
    115 H115       26.9865    0.7053   -9.8003 H         1 UNK         0.3000 
    116 H116       27.7163    1.7066  -12.5313 H         1 UNK         0.0850 
    117 H117       27.6998   -0.7016  -13.1629 H         1 UNK         0.0810 
    118 H118       26.1288   -0.1993  -12.5589 H         1 UNK         0.0810 
    119 H119       27.2037   -1.1485  -11.5352 H         1 UNK         0.0810 
    120 H120       28.8415   -0.2594   -9.7299 H         1 UNK         0.3040 
    121 H121       31.4343   -0.7303  -10.8722 H         1 UNK         0.0766 
    122 H122       31.8141   -1.9480   -8.7389 H         1 UNK         0.0812 
    123 H123       30.2410   -2.3576   -9.4016 H         1 UNK         0.0812 
    124 H124       30.3618   -1.2421   -8.0432 H         1 UNK         0.0812 
    125 H125       30.2533    1.8739   -8.8595 H         1 UNK         0.3205 
    126 H126       31.1003    3.6223   -7.8753 H         1 UNK         0.0754 
    127 H127       33.3265    4.5300   -8.3894 H         1 UNK         0.0769 
    128 H128       32.5545    3.9783   -9.8675 H         1 UNK         0.0769 
    129 H129       33.8314    3.0175   -9.1217 H         1 UNK         0.0769 
    130 H130       32.9637    0.7116   -7.4336 H         1 UNK         0.2981 
    131 H131       34.3175    1.1088   -5.0635 H         1 UNK         0.0541 
    132 H132       30.8358    0.0112   -5.2854 H         1 UNK         0.3459 
    133 H133       30.5202    0.3049   -3.5848 H         1 UNK         0.3459 
    134 H134       34.5234   -0.8482   -6.5944 H         1 UNK         0.0612 
    135 H135       32.9540   -1.4159   -6.1054 H         1 UNK         0.0612 
    136 H136       34.3436   -3.6283   -6.0074 H         1 UNK         0.0624 
    137 H137       34.9461   -4.2047   -4.4783 H         1 UNK         0.0624 
@<TRIPOS>BOND
     1    1    2 1    
     2    1   72 1    
     3    1   73 1    
     4    1   74 1    
     5    2    3 2    
     6    2    4 am   BACKBONE|DICT|INTERRES
     7    4    5 1    
     8    4   75 1    
     9    5    6 1    
    10    5   35 1    
    11    5   76 1    
    12    6    7 1    
    13    6   77 1    
    14    6   78 1    
    15    7    8 1    
    16    8    9 1    
    17    8   79 1    
    18    8   80 1    
    19    9   10 ar   
    20    9   14 ar   
    21   10   11 ar   
    22   10   81 1    
    23   11   12 ar   
    24   11   71 1    
    25   12   13 ar   
    26   12   82 1    
    27   13   14 ar   
    28   13   15 1    
    29   14   83 1    
    30   15   16 1    
    31   15   84 1    
    32   15   85 1    
    33   16   17 1    
    34   17   18 1    
    35   17   86 1    
    36   17   87 1    
    37   18   19 1    
    38   18   37 1    
    39   18   88 1    
    40   19   20 am   BACKBONE|DICT|INTERRES
    41   19   89 1    
    42   20   21 2    
    43   20   22 1    
    44   22   23 1    
    45   22   24 1    
    46   22   90 1    
    47   23   91 1    
    48   23   92 1    
    49   23   93 1    
    50   24   25 am   BACKBONE|DICT|INTERRES
    51   24   94 1    
    52   25   26 2    
    53   25   27 1    
    54   27   28 1    
    55   27   29 1    
    56   27   95 1    
    57   28   96 1    
    58   28   97 1    
    59   28   98 1    
    60   29   30 am   BACKBONE|DICT|INTERRES
    61   29   99 1    
    62   30   31 2    
    63   30   32 1    
    64   32   33 1    
    65   32   34 1    
    66   32  100 1    
    67   33  101 1    
    68   33  102 1    
    69   33  103 1    
    70   34   35 am   BACKBONE|DICT|INTERRES
    71   34  104 1    
    72   35   36 2    
    73   37   38 2    
    74   37   39 am   BACKBONE|DICT|INTERRES
    75   39   40 1    
    76   39  105 1    
    77   40   41 1    
    78   40   42 1    
    79   40  106 1    
    80   41  107 1    
    81   41  108 1    
    82   41  109 1    
    83   42   43 2    
    84   42   44 am   BACKBONE|DICT|INTERRES
    85   44   45 1    
    86   44  110 1    
    87   45   46 1    
    88   45   47 1    
    89   45  111 1    
    90   46  112 1    
    91   46  113 1    
    92   46  114 1    
    93   47   48 2    
    94   47   49 am   BACKBONE|DICT|INTERRES
    95   49   50 1    
    96   49  115 1    
    97   50   51 1    
    98   50   52 1    
    99   50  116 1    
   100   51  117 1    
   101   51  118 1    
   102   51  119 1    
   103   52   53 2    
   104   52   54 am   BACKBONE|DICT|INTERRES
   105   54   55 1    
   106   54  120 1    
   107   55   56 1    
   108   55   57 1    
   109   55  121 1    
   110   56  122 1    
   111   56  123 1    
   112   56  124 1    
   113   57   58 2    
   114   57   59 am   BACKBONE|DICT|INTERRES
   115   59   60 1    
   116   59  125 1    
   117   60   61 1    
   118   60   62 1    
   119   60  126 1    
   120   61  127 1    
   121   61  128 1    
   122   61  129 1    
   123   62   63 2    
   124   62   64 am   BACKBONE|DICT|INTERRES
   125   64   65 1    
   126   64  130 1    
   127   65   66 1    
   128   65   69 1    
   129   65  131 1    
   130   66   67 am   BACKBONE|DICT|INTERRES
   131   66   68 2    
   132   67  132 1    
   133   67  133 1    
   134   69   70 1    
   135   69  134 1    
   136   69  135 1    
   137   70   71 1    
   138   71  136 1    
   139   71  137 1    
@<TRIPOS>SUBSTRUCTURE
     1 UNK         1 GROUP             0       ****    0 ROOT    
