@<TRIPOS>MOLECULE
3R137
137   139    1
SMALL
USER_CHARGES


@<TRIPOS>ATOM
      1 CA         24.6825   -4.5120   -8.4552 C.3       0 UNK        -0.2020 
      2 C          25.0511   -4.9285   -7.0398 C.2       0 UNK         0.4855 
      3 O          24.2414   -5.5523   -6.3532 O.2       0 UNK        -0.5197 
      4 N          26.2745   -4.6017   -6.6048 N.am      1 UNK        -0.4892 
      5 CA         26.7657   -4.8527   -5.2472 C.3       1 UNK         0.0835 
      6 C6         28.3071   -4.7193   -5.1810 C.3       12 UNK        -0.0855 
      7 S7         28.9953   -5.4885   -3.6785 S.3       12 UNK        -0.2931 
      8 C8         30.6381   -4.7000   -3.5953 C.3       12 UNK         0.0378 
      9 C9         30.6438   -3.2284   -3.1762 C.ar      12 UNK        -0.0802 
     10 C10        31.6829   -2.4101   -3.6338 C.ar      12 UNK        -0.0944 
     11 C11        31.7829   -1.0807   -3.2171 C.ar      12 UNK        -0.0787 
     12 C12        30.8303   -0.5633   -2.3391 C.ar      12 UNK        -0.0862 
     13 C13        29.7728   -1.3561   -1.8858 C.ar      12 UNK        -0.0733 
     14 C14        29.6868   -2.6901   -2.3019 C.ar      12 UNK        -0.0832 
     15 C15        28.7525   -0.7686   -0.9174 C.3       12 UNK         0.0240 
     16 S16        27.2078   -0.2420   -1.7320 S.3       12 UNK        -0.2522 
     17 C17        27.7938    0.9046   -3.0312 C.3       12 UNK        -0.0967 
     18 CA         27.6829    0.2238   -4.4217 C.3       5 UNK         0.0660 
     19 N          26.2907   -0.0234   -4.7989 N.am      5 UNK        -0.4015 
     20 C          25.3853    0.8708   -5.2187 C.2       4 UNK         0.4946 
     21 O          25.6262    2.0639   -5.4112 O.2       4 UNK        -0.5353 
     22 CA         23.9581    0.3400   -5.4216 C.3       4 UNK         0.0277 
     23 CB         23.8806   -0.6140   -6.6255 C.3       4 UNK        -0.1981 
     24 N          23.4773   -0.3317   -4.2117 N.am      4 UNK        -0.4209 
     25 C          23.1066    0.3053   -3.0919 C.2       3 UNK         0.4942 
     26 O          22.9984    1.5295   -3.0111 O.2       3 UNK        -0.5208 
     27 CA         22.8340   -0.5406   -1.8338 C.3       3 UNK         0.0250 
     28 CB         21.3669   -1.0115   -1.7724 C.3       3 UNK        -0.1990 
     29 N          23.7876   -1.6426   -1.6362 N.am      3 UNK        -0.4232 
     30 C          23.9109   -2.7779   -2.3365 C.2       2 UNK         0.4993 
     31 O          23.1485   -3.1161   -3.2447 O.2       2 UNK        -0.5286 
     32 CA         25.1069   -3.6717   -1.9583 C.3       2 UNK         0.0209 
     33 CB         24.7074   -4.6609   -0.8515 C.3       2 UNK        -0.1931 
     34 N          25.6753   -4.4213   -3.0848 N.am      2 UNK        -0.4546 
     35 C          26.0860   -3.8963   -4.2483 C.2       1 UNK         0.5154 
     36 O          25.9926   -2.7029   -4.5386 O.2       1 UNK        -0.5181 
     37 C          28.4312    0.9169   -5.5747 C.2       5 UNK         0.5014 
     38 O          28.5045    0.3314   -6.6563 O.2       5 UNK        -0.5248 
     39 N          28.9179    2.1484   -5.3694 N.am      6 UNK        -0.4434 
     40 CA         29.6449    2.9444   -6.3658 C.3       6 UNK         0.0363 
     41 CB         30.1921    4.2124   -5.6906 C.3       6 UNK        -0.1936 
     42 C          28.8473    3.2984   -7.6380 C.2       6 UNK         0.5081 
     43 O          29.4569    3.7129   -8.6243 O.2       6 UNK        -0.5248 
     44 N          27.5169    3.1271   -7.6200 N.am      7 UNK        -0.4718 
     45 CA         26.6648    3.2537   -8.8047 C.3       7 UNK         0.0273 
     46 CB         25.2121    3.4994   -8.3645 C.3       7 UNK        -0.1935 
     47 C          26.7399    2.0316   -9.7418 C.2       7 UNK         0.5018 
     48 O          26.2946    2.1456  -10.8848 O.2       7 UNK        -0.5186 
     49 N          27.2660    0.8951   -9.2594 N.am      8 UNK        -0.4240 
     50 CA         27.3434   -0.3645  -10.0032 C.3       8 UNK         0.0235 
     51 CB         26.3599   -1.3789   -9.3961 C.3       8 UNK        -0.2000 
     52 C          28.7653   -0.9409  -10.0319 C.2       8 UNK         0.4941 
     53 O          29.2258   -1.3440  -11.1012 O.2       8 UNK        -0.5273 
     54 N          29.4291   -0.9975   -8.8715 N.am      9 UNK        -0.4262 
     55 CA         30.7820   -1.5263   -8.7148 C.3       9 UNK         0.0264 
     56 CB         30.9525   -2.0430   -7.2757 C.3       9 UNK        -0.1955 
     57 C          31.8289   -0.4496   -9.0316 C.2       9 UNK         0.5031 
     58 O          31.6051    0.7331   -8.7616 O.2       9 UNK        -0.5390 
     59 N          32.9825   -0.8833   -9.5539 N.am      10 UNK        -0.4204 
     60 CA         34.1411   -0.0375   -9.8529 C.3       10 UNK         0.0237 
     61 CB         34.9711   -0.7019  -10.9681 C.3       10 UNK        -0.1985 
     62 C          34.9652    0.2390   -8.5806 C.2       10 UNK         0.4970 
     63 O          36.1158   -0.1925   -8.4828 O.2       10 UNK        -0.4914 
     64 N          34.3388    0.9163   -7.6128 N.am      11 UNK        -0.4285 
     65 CA         34.9158    1.2816   -6.3118 C.3       11 UNK         0.1007 
     66 C          36.1302    2.2431   -6.4331 C.2       11 UNK         0.5703 
     67 N          37.1118    2.1177   -5.5501 N.am      11 UNK        -0.7361 
     68 O          36.1698    3.1252   -7.2896 O.2       11 UNK        -0.4986 
     69 C69        33.8462    1.8778   -5.3609 C.3       12 UNK        -0.0947 
     70 S70        32.4050    0.7871   -5.1301 S.3       12 UNK        -0.2240 
     71 C71        32.9233   -0.1991   -3.6987 C.3       12 UNK         0.0194 
     72 H72        25.5639   -4.4405   -9.0914 H         1 UNK         0.0906 
     73 H73        24.0085   -5.2420   -8.9029 H         1 UNK         0.0906 
     74 H74        24.1797   -3.5452   -8.4450 H         1 UNK         0.0906 
     75 H75        26.8863   -4.0626   -7.1997 H         1 UNK         0.3140 
     76 H76        26.4953   -5.8797   -4.9899 H         1 UNK         0.1085 
     77 H77        28.7646   -5.2187   -6.0368 H         1 UNK         0.0836 
     78 H78        28.6150   -3.6726   -5.2399 H         1 UNK         0.0836 
     79 H79        31.2461   -5.2555   -2.8803 H         1 UNK         0.0731 
     80 H80        31.1233   -4.8180   -4.5658 H         1 UNK         0.0731 
     81 H81        32.4301   -2.8133   -4.3039 H         1 UNK         0.1312 
     82 H82        30.9157    0.4633   -2.0100 H         1 UNK         0.1406 
     83 H83        28.8819   -3.3084   -1.9293 H         1 UNK         0.1631 
     84 H84        29.1787    0.0839   -0.3860 H         1 UNK         0.0717 
     85 H85        28.5099   -1.5077   -0.1526 H         1 UNK         0.0717 
     86 H86        27.1882    1.8119   -2.9915 H         1 UNK         0.0934 
     87 H87        28.8150    1.2111   -2.8082 H         1 UNK         0.0934 
     88 H88        28.1504   -0.7598   -4.3459 H         1 UNK         0.0739 
     89 H89        26.0115   -1.0016   -4.7093 H         1 UNK         0.3093 
     90 H90        23.3089    1.1940   -5.6269 H         1 UNK         0.0818 
     91 H91        22.8561   -0.9395   -6.8058 H         1 UNK         0.0819 
     92 H92        24.2261   -0.1166   -7.5323 H         1 UNK         0.0819 
     93 H93        24.4930   -1.5054   -6.4857 H         1 UNK         0.0819 
     94 H94        23.5228   -1.3458   -4.1845 H         1 UNK         0.3041 
     95 H95        22.9907    0.1229   -0.9816 H         1 UNK         0.0784 
     96 H96        20.6880   -0.1578   -1.7740 H         1 UNK         0.0793 
     97 H97        21.0978   -1.6351   -2.6251 H         1 UNK         0.0793 
     98 H98        21.1701   -1.5806   -0.8639 H         1 UNK         0.0793 
     99 H99        24.4863   -1.4586   -0.9287 H         1 UNK         0.3024 
    100 H100       25.9045   -3.0290   -1.5798 H         1 UNK         0.1171 
    101 H101       24.3089   -4.1379    0.0190 H         1 UNK         0.0786 
    102 H102       25.5627   -5.2450   -0.5110 H         1 UNK         0.0786 
    103 H103       23.9390   -5.3559   -1.1932 H         1 UNK         0.0786 
    104 H104       25.7888   -5.4143   -2.9434 H         1 UNK         0.2977 
    105 H105       28.7684    2.5848   -4.4722 H         1 UNK         0.3127 
    106 H106       30.4937    2.3461   -6.7017 H         1 UNK         0.0770 
    107 H107       29.3897    4.8433   -5.3067 H         1 UNK         0.0814 
    108 H108       30.7701    4.8118   -6.3954 H         1 UNK         0.0814 
    109 H109       30.8563    3.9646   -4.8622 H         1 UNK         0.0814 
    110 H110       27.0700    2.7941   -6.7709 H         1 UNK         0.2983 
    111 H111       26.9935    4.1238   -9.3775 H         1 UNK         0.0947 
    112 H112       24.5780    3.7194   -9.2244 H         1 UNK         0.0806 
    113 H113       25.1383    4.3465   -7.6824 H         1 UNK         0.0806 
    114 H114       24.7872    2.6277   -7.8665 H         1 UNK         0.0806 
    115 H115       27.6503    0.8933   -8.3187 H         1 UNK         0.3000 
    116 H116       27.0547   -0.2067  -11.0446 H         1 UNK         0.0850 
    117 H117       26.4357   -2.3408   -9.9037 H         1 UNK         0.0810 
    118 H118       26.5511   -1.5465   -8.3352 H         1 UNK         0.0810 
    119 H119       25.3299   -1.0397   -9.5038 H         1 UNK         0.0810 
    120 H120       29.0259   -0.5670   -8.0391 H         1 UNK         0.3040 
    121 H121       30.9193   -2.3659   -9.3999 H         1 UNK         0.0766 
    122 H122       30.7732   -1.2571   -6.5416 H         1 UNK         0.0812 
    123 H123       31.9615   -2.4210   -7.1068 H         1 UNK         0.0812 
    124 H124       30.2609   -2.8578   -7.0632 H         1 UNK         0.0812 
    125 H125       33.1029   -1.8747   -9.7058 H         1 UNK         0.3205 
    126 H126       33.7925    0.9265  -10.2305 H         1 UNK         0.0754 
    127 H127       35.8323   -0.0867  -11.2326 H         1 UNK         0.0769 
    128 H128       34.3808   -0.8354  -11.8749 H         1 UNK         0.0769 
    129 H129       35.3487   -1.6799  -10.6665 H         1 UNK         0.0769 
    130 H130       33.3750    1.1896   -7.7709 H         1 UNK         0.2981 
    131 H131       35.2774    0.3536   -5.8646 H         1 UNK         0.0541 
    132 H132       37.0848    1.4067   -4.8358 H         1 UNK         0.3459 
    133 H133       37.9006    2.7431   -5.6036 H         1 UNK         0.3459 
    134 H134       33.4785    2.8274   -5.7543 H         1 UNK         0.0612 
    135 H135       34.2781    2.1024   -4.3840 H         1 UNK         0.0612 
    136 H136       33.7890   -0.8048   -3.9706 H         1 UNK         0.0624 
    137 H137       33.2444    0.4633   -2.8935 H         1 UNK         0.0624 
@<TRIPOS>BOND
     1    1    2 1    
     2    1   72 1    
     3    1   73 1    
     4    1   74 1    
     5    2    3 2    
     6    2    4 am   BACKBONE|DICT|INTERRES
     7    4    5 1    
     8    4   75 1    
     9    5    6 1    
    10    5   35 1    
    11    5   76 1    
    12    6    7 1    
    13    6   77 1    
    14    6   78 1    
    15    7    8 1    
    16    8    9 1    
    17    8   79 1    
    18    8   80 1    
    19    9   10 ar   
    20    9   14 ar   
    21   10   11 ar   
    22   10   81 1    
    23   11   12 ar   
    24   11   71 1    
    25   12   13 ar   
    26   12   82 1    
    27   13   14 ar   
    28   13   15 1    
    29   14   83 1    
    30   15   16 1    
    31   15   84 1    
    32   15   85 1    
    33   16   17 1    
    34   17   18 1    
    35   17   86 1    
    36   17   87 1    
    37   18   19 1    
    38   18   37 1    
    39   18   88 1    
    40   19   20 am   BACKBONE|DICT|INTERRES
    41   19   89 1    
    42   20   21 2    
    43   20   22 1    
    44   22   23 1    
    45   22   24 1    
    46   22   90 1    
    47   23   91 1    
    48   23   92 1    
    49   23   93 1    
    50   24   25 am   BACKBONE|DICT|INTERRES
    51   24   94 1    
    52   25   26 2    
    53   25   27 1    
    54   27   28 1    
    55   27   29 1    
    56   27   95 1    
    57   28   96 1    
    58   28   97 1    
    59   28   98 1    
    60   29   30 am   BACKBONE|DICT|INTERRES
    61   29   99 1    
    62   30   31 2    
    63   30   32 1    
    64   32   33 1    
    65   32   34 1    
    66   32  100 1    
    67   33  101 1    
    68   33  102 1    
    69   33  103 1    
    70   34   35 am   BACKBONE|DICT|INTERRES
    71   34  104 1    
    72   35   36 2    
    73   37   38 2    
    74   37   39 am   BACKBONE|DICT|INTERRES
    75   39   40 1    
    76   39  105 1    
    77   40   41 1    
    78   40   42 1    
    79   40  106 1    
    80   41  107 1    
    81   41  108 1    
    82   41  109 1    
    83   42   43 2    
    84   42   44 am   BACKBONE|DICT|INTERRES
    85   44   45 1    
    86   44  110 1    
    87   45   46 1    
    88   45   47 1    
    89   45  111 1    
    90   46  112 1    
    91   46  113 1    
    92   46  114 1    
    93   47   48 2    
    94   47   49 am   BACKBONE|DICT|INTERRES
    95   49   50 1    
    96   49  115 1    
    97   50   51 1    
    98   50   52 1    
    99   50  116 1    
   100   51  117 1    
   101   51  118 1    
   102   51  119 1    
   103   52   53 2    
   104   52   54 am   BACKBONE|DICT|INTERRES
   105   54   55 1    
   106   54  120 1    
   107   55   56 1    
   108   55   57 1    
   109   55  121 1    
   110   56  122 1    
   111   56  123 1    
   112   56  124 1    
   113   57   58 2    
   114   57   59 am   BACKBONE|DICT|INTERRES
   115   59   60 1    
   116   59  125 1    
   117   60   61 1    
   118   60   62 1    
   119   60  126 1    
   120   61  127 1    
   121   61  128 1    
   122   61  129 1    
   123   62   63 2    
   124   62   64 am   BACKBONE|DICT|INTERRES
   125   64   65 1    
   126   64  130 1    
   127   65   66 1    
   128   65   69 1    
   129   65  131 1    
   130   66   67 am   BACKBONE|DICT|INTERRES
   131   66   68 2    
   132   67  132 1    
   133   67  133 1    
   134   69   70 1    
   135   69  134 1    
   136   69  135 1    
   137   70   71 1    
   138   71  136 1    
   139   71  137 1    
@<TRIPOS>SUBSTRUCTURE
     1 UNK         1 GROUP             0       ****    0 ROOT    
