@<TRIPOS>MOLECULE
3R137
137   139    1
SMALL
USER_CHARGES


@<TRIPOS>ATOM
      1 CA         27.8527   -6.9989   -5.9589 C.3       0 UNK        -0.2020 
      2 C          28.6409   -5.7321   -6.2830 C.2       0 UNK         0.4855 
      3 O          29.4127   -5.7370   -7.2390 O.2       0 UNK        -0.5197 
      4 N          28.5037   -4.6301   -5.5293 N.am      1 UNK        -0.4892 
      5 CA         27.5983   -4.4175   -4.3902 C.3       1 UNK         0.0835 
      6 C6         27.8835   -3.0622   -3.6905 C.3       12 UNK        -0.0855 
      7 S7         27.5712   -3.1074   -1.8923 S.3       12 UNK        -0.2931 
      8 C8         29.2367   -3.4163   -1.2109 C.3       12 UNK         0.0378 
      9 C9         30.2317   -2.3417   -1.6258 C.ar      12 UNK        -0.0802 
     10 C10        31.2410   -2.6364   -2.5463 C.ar      12 UNK        -0.0944 
     11 C11        32.1037   -1.6351   -3.0030 C.ar      12 UNK        -0.0787 
     12 C12        31.9711   -0.3351   -2.5020 C.ar      12 UNK        -0.0862 
     13 C13        30.9897   -0.0372   -1.5509 C.ar      12 UNK        -0.0733 
     14 C14        30.1238   -1.0457   -1.1164 C.ar      12 UNK        -0.0832 
     15 C15        30.8793    1.3635   -0.9655 C.3       12 UNK         0.0240 
     16 S16        29.2563    2.1227   -1.2870 S.3       12 UNK        -0.2522 
     17 C17        29.3930    2.6239   -3.0370 C.3       12 UNK        -0.0967 
     18 CA         28.5228    1.7810   -4.0071 C.3       5 UNK         0.0660 
     19 N          27.1542    1.5793   -3.5151 N.am      5 UNK        -0.4015 
     20 C          26.2265    0.8026   -4.0894 C.2       4 UNK         0.4946 
     21 O          26.4030    0.1558   -5.1259 O.2       4 UNK        -0.5353 
     22 CA         24.8498    0.8023   -3.4215 C.3       4 UNK         0.0277 
     23 CB         24.0003    1.9821   -3.9324 C.3       4 UNK        -0.1981 
     24 N          24.1749   -0.4619   -3.7004 N.am      4 UNK        -0.4209 
     25 C          23.1824   -0.9813   -2.9675 C.2       3 UNK         0.4942 
     26 O          22.7178   -0.4181   -1.9755 O.2       3 UNK        -0.5208 
     27 CA         22.6139   -2.3628   -3.3520 C.3       3 UNK         0.0250 
     28 CB         21.1164   -2.2762   -3.7133 C.3       3 UNK        -0.1990 
     29 N          23.3714   -3.0997   -4.3733 N.am      3 UNK        -0.4232 
     30 C          23.4960   -2.8479   -5.6829 C.2       2 UNK         0.4993 
     31 O          22.9607   -1.8952   -6.2473 O.2       2 UNK        -0.5286 
     32 CA         24.4043   -3.8096   -6.4807 C.3       2 UNK         0.0209 
     33 CB         24.5103   -3.4216   -7.9681 C.3       2 UNK        -0.1931 
     34 N          25.7602   -3.8959   -5.9273 N.am      2 UNK        -0.4546 
     35 C          26.1132   -4.5125   -4.7902 C.2       1 UNK         0.5154 
     36 O          25.3234   -5.1355   -4.0796 O.2       1 UNK        -0.5181 
     37 C          28.5346    2.4325   -5.4048 C.2       5 UNK         0.5014 
     38 O          29.3230    2.0318   -6.2607 O.2       5 UNK        -0.5248 
     39 N          27.6471    3.4179   -5.6110 N.am      6 UNK        -0.4434 
     40 CA         27.4701    4.1302   -6.8781 C.3       6 UNK         0.0363 
     41 CB         26.5887    5.3691   -6.6554 C.3       6 UNK        -0.1936 
     42 C          26.8798    3.2377   -7.9800 C.2       6 UNK         0.5081 
     43 O          27.3173    3.3268   -9.1260 O.2       6 UNK        -0.5248 
     44 N          25.9349    2.3609   -7.6106 N.am      7 UNK        -0.4718 
     45 CA         25.3403    1.3607   -8.5038 C.3       7 UNK         0.0273 
     46 CB         24.1091    0.7385   -7.8314 C.3       7 UNK        -0.1935 
     47 C          26.3479    0.2750   -8.9171 C.2       7 UNK         0.5018 
     48 O          26.3121   -0.1863  -10.0576 O.2       7 UNK        -0.5186 
     49 N          27.2611   -0.0679   -7.9989 N.am      8 UNK        -0.4240 
     50 CA         28.4221   -0.9245   -8.2428 C.3       8 UNK         0.0235 
     51 CB         28.9238   -1.4602   -6.8924 C.3       8 UNK        -0.2000 
     52 C          29.5703   -0.2188   -8.9923 C.2       8 UNK         0.4941 
     53 O          30.5729   -0.8749   -9.2743 O.2       8 UNK        -0.5273 
     54 N          29.4474    1.0932   -9.2578 N.am      9 UNK        -0.4262 
     55 CA         30.4508    1.9784   -9.8665 C.3       9 UNK         0.0264 
     56 CB         30.6342    1.6407  -11.3608 C.3       9 UNK        -0.1955 
     57 C          31.7813    1.9927   -9.0866 C.2       9 UNK         0.5031 
     58 O          32.8554    1.9483   -9.6915 O.2       9 UNK        -0.5390 
     59 N          31.6774    1.9846   -7.7479 N.am      10 UNK        -0.4204 
     60 CA         32.7615    1.8447   -6.7671 C.3       10 UNK         0.0237 
     61 CB         33.6547    3.1024   -6.7597 C.3       10 UNK        -0.1985 
     62 C          33.5736    0.5397   -6.9167 C.2       10 UNK         0.4970 
     63 O          34.7148    0.4823   -6.4559 O.2       10 UNK        -0.4914 
     64 N          32.9743   -0.4771   -7.5530 N.am      11 UNK        -0.4285 
     65 CA         33.5705   -1.7775   -7.8922 C.3       11 UNK         0.1007 
     66 C          34.7096   -1.6958   -8.9535 C.2       11 UNK         0.5703 
     67 N          34.8159   -0.6196   -9.7269 N.am      11 UNK        -0.7361 
     68 O          35.4930   -2.6309   -9.1041 O.2       11 UNK        -0.4986 
     69 C69        33.9405   -2.6339   -6.6469 C.3       12 UNK        -0.0947 
     70 S70        32.5379   -2.8146   -5.4914 S.3       12 UNK        -0.2240 
     71 C71        33.1905   -1.9565   -4.0212 C.3       12 UNK         0.0194 
     72 H72        27.7777   -7.1740   -4.8870 H         1 UNK         0.0906 
     73 H73        26.8485   -6.9411   -6.3781 H         1 UNK         0.0906 
     74 H74        28.3442   -7.8694   -6.3939 H         1 UNK         0.0906 
     75 H75        29.0886   -3.8421   -5.7640 H         1 UNK         0.3140 
     76 H76        27.7990   -5.2181   -3.6755 H         1 UNK         0.1085 
     77 H77        27.2874   -2.2503   -4.1124 H         1 UNK         0.0836 
     78 H78        28.9128   -2.7549   -3.8668 H         1 UNK         0.0836 
     79 H79        29.5746   -4.4034   -1.5309 H         1 UNK         0.0731 
     80 H80        29.1752   -3.4516   -0.1223 H         1 UNK         0.0731 
     81 H81        31.3359   -3.6409   -2.9360 H         1 UNK         0.1312 
     82 H82        32.6426    0.4420   -2.8411 H         1 UNK         0.1406 
     83 H83        29.3496   -0.8163   -0.3963 H         1 UNK         0.1631 
     84 H84        31.6698    2.0158   -1.3396 H         1 UNK         0.0717 
     85 H85        31.0242    1.3005    0.1137 H         1 UNK         0.0717 
     86 H86        29.1108    3.6781   -3.0799 H         1 UNK         0.0934 
     87 H87        30.4393    2.5861   -3.3465 H         1 UNK         0.0934 
     88 H88        28.9779    0.7921   -4.0996 H         1 UNK         0.0739 
     89 H89        26.9296    2.0549   -2.6527 H         1 UNK         0.3093 
     90 H90        24.9936    0.8955   -2.3426 H         1 UNK         0.0818 
     91 H91        24.4998    2.9359   -3.7597 H         1 UNK         0.0819 
     92 H92        23.8019    1.9026   -5.0014 H         1 UNK         0.0819 
     93 H93        23.0387    2.0291   -3.4211 H         1 UNK         0.0819 
     94 H94        24.5237   -0.9631   -4.5070 H         1 UNK         0.3041 
     95 H95        22.6924   -2.9703   -2.4493 H         1 UNK         0.0784 
     96 H96        20.5389   -1.8656   -2.8840 H         1 UNK         0.0793 
     97 H97        20.9414   -1.6321   -4.5751 H         1 UNK         0.0793 
     98 H98        20.7038   -3.2593   -3.9380 H         1 UNK         0.0793 
     99 H99        23.9045   -3.8936   -4.0239 H         1 UNK         0.3024 
    100 H100       23.9435   -4.7986   -6.4248 H         1 UNK         0.1171 
    101 H101       24.9711   -2.4415   -8.0975 H         1 UNK         0.0786 
    102 H102       25.1016   -4.1468   -8.5273 H         1 UNK         0.0786 
    103 H103       23.5250   -3.3823   -8.4346 H         1 UNK         0.0786 
    104 H104       26.4806   -3.4152   -6.4455 H         1 UNK         0.2977 
    105 H105       27.0476    3.6928   -4.8470 H         1 UNK         0.3127 
    106 H106       28.4528    4.4665   -7.2159 H         1 UNK         0.0770 
    107 H107       25.5943    5.1022   -6.2957 H         1 UNK         0.0814 
    108 H108       26.4599    5.9263   -7.5845 H         1 UNK         0.0814 
    109 H109       27.0368    6.0502   -5.9318 H         1 UNK         0.0814 
    110 H110       25.6572    2.3290   -6.6413 H         1 UNK         0.2983 
    111 H111       25.0132    1.8688   -9.4139 H         1 UNK         0.0947 
    112 H112       23.6504   -0.0151   -8.4729 H         1 UNK         0.0806 
    113 H113       23.3477    1.4887   -7.6188 H         1 UNK         0.0806 
    114 H114       24.3689    0.2486   -6.8934 H         1 UNK         0.0806 
    115 H115       27.1646    0.3100   -7.0617 H         1 UNK         0.3000 
    116 H116       28.1053   -1.7719   -8.8544 H         1 UNK         0.0850 
    117 H117       29.3291   -0.6660   -6.2651 H         1 UNK         0.0810 
    118 H118       29.7145   -2.1984   -7.0331 H         1 UNK         0.0810 
    119 H119       28.1155   -1.9354   -6.3420 H         1 UNK         0.0810 
    120 H120       28.5911    1.5542   -8.9750 H         1 UNK         0.3040 
    121 H121       30.0490    2.9906   -9.8014 H         1 UNK         0.0766 
    122 H122       31.0746    0.6527  -11.5009 H         1 UNK         0.0812 
    123 H123       29.6822    1.6624  -11.8912 H         1 UNK         0.0812 
    124 H124       31.2923    2.3618  -11.8469 H         1 UNK         0.0812 
    125 H125       30.7403    1.9988   -7.3403 H         1 UNK         0.3205 
    126 H126       32.2741    1.7797   -5.7934 H         1 UNK         0.0754 
    127 H127       34.3710    3.0713   -5.9378 H         1 UNK         0.0769 
    128 H128       33.0614    4.0081   -6.6356 H         1 UNK         0.0769 
    129 H129       34.2247    3.1980   -7.6840 H         1 UNK         0.0769 
    130 H130       32.0510   -0.3338   -7.9454 H         1 UNK         0.2981 
    131 H131       32.7749   -2.3158   -8.4080 H         1 UNK         0.0541 
    132 H132       35.5483   -0.5797  -10.4173 H         1 UNK         0.3459 
    133 H133       34.1700    0.1540   -9.6294 H         1 UNK         0.3459 
    134 H134       34.8033   -2.2116   -6.1299 H         1 UNK         0.0612 
    135 H135       34.2368   -3.6382   -6.9540 H         1 UNK         0.0612 
    136 H136       33.6913   -1.0408   -4.3367 H         1 UNK         0.0624 
    137 H137       33.9502   -2.5817   -3.5509 H         1 UNK         0.0624 
@<TRIPOS>BOND
     1    1    2 1    
     2    1   72 1    
     3    1   73 1    
     4    1   74 1    
     5    2    3 2    
     6    2    4 am   BACKBONE|DICT|INTERRES
     7    4    5 1    
     8    4   75 1    
     9    5    6 1    
    10    5   35 1    
    11    5   76 1    
    12    6    7 1    
    13    6   77 1    
    14    6   78 1    
    15    7    8 1    
    16    8    9 1    
    17    8   79 1    
    18    8   80 1    
    19    9   10 ar   
    20    9   14 ar   
    21   10   11 ar   
    22   10   81 1    
    23   11   12 ar   
    24   11   71 1    
    25   12   13 ar   
    26   12   82 1    
    27   13   14 ar   
    28   13   15 1    
    29   14   83 1    
    30   15   16 1    
    31   15   84 1    
    32   15   85 1    
    33   16   17 1    
    34   17   18 1    
    35   17   86 1    
    36   17   87 1    
    37   18   19 1    
    38   18   37 1    
    39   18   88 1    
    40   19   20 am   BACKBONE|DICT|INTERRES
    41   19   89 1    
    42   20   21 2    
    43   20   22 1    
    44   22   23 1    
    45   22   24 1    
    46   22   90 1    
    47   23   91 1    
    48   23   92 1    
    49   23   93 1    
    50   24   25 am   BACKBONE|DICT|INTERRES
    51   24   94 1    
    52   25   26 2    
    53   25   27 1    
    54   27   28 1    
    55   27   29 1    
    56   27   95 1    
    57   28   96 1    
    58   28   97 1    
    59   28   98 1    
    60   29   30 am   BACKBONE|DICT|INTERRES
    61   29   99 1    
    62   30   31 2    
    63   30   32 1    
    64   32   33 1    
    65   32   34 1    
    66   32  100 1    
    67   33  101 1    
    68   33  102 1    
    69   33  103 1    
    70   34   35 am   BACKBONE|DICT|INTERRES
    71   34  104 1    
    72   35   36 2    
    73   37   38 2    
    74   37   39 am   BACKBONE|DICT|INTERRES
    75   39   40 1    
    76   39  105 1    
    77   40   41 1    
    78   40   42 1    
    79   40  106 1    
    80   41  107 1    
    81   41  108 1    
    82   41  109 1    
    83   42   43 2    
    84   42   44 am   BACKBONE|DICT|INTERRES
    85   44   45 1    
    86   44  110 1    
    87   45   46 1    
    88   45   47 1    
    89   45  111 1    
    90   46  112 1    
    91   46  113 1    
    92   46  114 1    
    93   47   48 2    
    94   47   49 am   BACKBONE|DICT|INTERRES
    95   49   50 1    
    96   49  115 1    
    97   50   51 1    
    98   50   52 1    
    99   50  116 1    
   100   51  117 1    
   101   51  118 1    
   102   51  119 1    
   103   52   53 2    
   104   52   54 am   BACKBONE|DICT|INTERRES
   105   54   55 1    
   106   54  120 1    
   107   55   56 1    
   108   55   57 1    
   109   55  121 1    
   110   56  122 1    
   111   56  123 1    
   112   56  124 1    
   113   57   58 2    
   114   57   59 am   BACKBONE|DICT|INTERRES
   115   59   60 1    
   116   59  125 1    
   117   60   61 1    
   118   60   62 1    
   119   60  126 1    
   120   61  127 1    
   121   61  128 1    
   122   61  129 1    
   123   62   63 2    
   124   62   64 am   BACKBONE|DICT|INTERRES
   125   64   65 1    
   126   64  130 1    
   127   65   66 1    
   128   65   69 1    
   129   65  131 1    
   130   66   67 am   BACKBONE|DICT|INTERRES
   131   66   68 2    
   132   67  132 1    
   133   67  133 1    
   134   69   70 1    
   135   69  134 1    
   136   69  135 1    
   137   70   71 1    
   138   71  136 1    
   139   71  137 1    
@<TRIPOS>SUBSTRUCTURE
     1 UNK         1 GROUP             0       ****    0 ROOT    
