@<TRIPOS>MOLECULE
3R137
137   139    1
SMALL
USER_CHARGES


@<TRIPOS>ATOM
      1 CA         28.7695   -3.5968    3.6622 C.3       0 UNK        -0.2020 
      2 C          29.0182   -2.6818    2.4724 C.2       0 UNK         0.4855 
      3 O          30.1505   -2.2474    2.2591 O.2       0 UNK        -0.5197 
      4 N          27.9708   -2.3833    1.6998 N.am      1 UNK        -0.4892 
      5 CA         28.0020   -1.5290    0.5142 C.3       1 UNK         0.0835 
      6 C6         28.6427   -2.2236   -0.7212 C.3       12 UNK        -0.0855 
      7 S7         27.8561   -3.8112   -1.1805 S.3       12 UNK        -0.2931 
      8 C8         29.3000   -4.8885   -1.4378 C.3       12 UNK         0.0378 
      9 C9         29.9795   -4.5918   -2.7664 C.ar      12 UNK        -0.0802 
     10 C10        31.0950   -3.7494   -2.8197 C.ar      12 UNK        -0.0944 
     11 C11        31.7079   -3.4649   -4.0434 C.ar      12 UNK        -0.0787 
     12 C12        31.2087   -4.0404   -5.2146 C.ar      12 UNK        -0.0862 
     13 C13        30.0860   -4.8710   -5.1760 C.ar      12 UNK        -0.0733 
     14 C14        29.4804   -5.1518   -3.9476 C.ar      12 UNK        -0.0832 
     15 C15        29.5114   -5.4319   -6.4694 C.3       12 UNK         0.0240 
     16 S16        27.9945   -4.5576   -6.9777 S.3       12 UNK        -0.2522 
     17 C17        28.5409   -2.8142   -6.9542 C.3       12 UNK        -0.0967 
     18 CA         27.6547   -1.8711   -7.8046 C.3       5 UNK         0.0660 
     19 N          26.2328   -2.0414   -7.4971 N.am      5 UNK        -0.4015 
     20 C          25.2117   -1.3797   -8.0559 C.2       4 UNK         0.4946 
     21 O          25.3392   -0.6081   -9.0050 O.2       4 UNK        -0.5353 
     22 CA         23.8224   -1.5534   -7.4093 C.3       4 UNK         0.0277 
     23 CB         22.9627   -2.5139   -8.2459 C.3       4 UNK        -0.1981 
     24 N          23.8412   -2.0089   -6.0097 N.am      4 UNK        -0.4209 
     25 C          24.4919   -1.4101   -5.0006 C.2       3 UNK         0.4942 
     26 O          25.1788   -0.3942   -5.1412 O.2       3 UNK        -0.5208 
     27 CA         24.4309   -2.1179   -3.6367 C.3       3 UNK         0.0250 
     28 CB         25.2171   -3.4406   -3.6826 C.3       3 UNK        -0.1990 
     29 N          24.9981   -1.2764   -2.5829 N.am      3 UNK        -0.4232 
     30 C          24.3754   -0.2425   -2.0015 C.2       2 UNK         0.4993 
     31 O          23.1902    0.0334   -2.1983 O.2       2 UNK        -0.5286 
     32 CA         25.2229    0.6531   -1.0712 C.3       2 UNK         0.0209 
     33 CB         24.4011    1.2443    0.0956 C.3       2 UNK        -0.1931 
     34 N          26.4637    0.0228   -0.5881 N.am      2 UNK        -0.4546 
     35 C          26.5722   -1.0316    0.2352 C.2       1 UNK         0.5154 
     36 O          25.6113   -1.6145    0.7476 O.2       1 UNK        -0.5181 
     37 C          28.1282   -0.4093   -7.6285 C.2       5 UNK         0.5014 
     38 O          28.9511    0.0589   -8.4165 O.2       5 UNK        -0.5248 
     39 N          27.5897    0.2966   -6.6205 N.am      6 UNK        -0.4434 
     40 CA         27.8780    1.7092   -6.3674 C.3       6 UNK         0.0363 
     41 CB         27.4270    2.0892   -4.9479 C.3       6 UNK        -0.1936 
     42 C          27.2238    2.6247   -7.4138 C.2       6 UNK         0.5081 
     43 O          27.8563    3.5841   -7.8530 O.2       6 UNK        -0.5248 
     44 N          25.9937    2.2915   -7.8330 N.am      7 UNK        -0.4718 
     45 CA         25.2683    2.9816   -8.9067 C.3       7 UNK         0.0273 
     46 CB         23.7966    2.5377   -8.9110 C.3       7 UNK        -0.1935 
     47 C          25.9159    2.7621  -10.2857 C.2       7 UNK         0.5018 
     48 O          25.9483    3.6879  -11.0964 O.2       7 UNK        -0.5186 
     49 N          26.4658    1.5591  -10.5018 N.am      8 UNK        -0.4240 
     50 CA         27.2859    1.1902  -11.6592 C.3       8 UNK         0.0235 
     51 CB         27.3721   -0.3436  -11.7350 C.3       8 UNK        -0.2000 
     52 C          28.6996    1.8104  -11.6491 C.2       8 UNK         0.4941 
     53 O          29.4088    1.6746  -12.6469 O.2       8 UNK        -0.5273 
     54 N          29.0839    2.4677  -10.5433 N.am      9 UNK        -0.4262 
     55 CA         30.3666    3.1319  -10.2918 C.3       9 UNK         0.0264 
     56 CB         30.5711    4.3264  -11.2490 C.3       9 UNK        -0.1955 
     57 C          31.5602    2.1580  -10.2659 C.2       9 UNK         0.5031 
     58 O          32.6251    2.4738  -10.8033 O.2       9 UNK        -0.5390 
     59 N          31.3683    0.9969   -9.6255 N.am      10 UNK        -0.4204 
     60 CA         32.4193    0.0207   -9.3328 C.3       10 UNK         0.0237 
     61 CB         31.7738   -1.3741   -9.2096 C.3       10 UNK        -0.1985 
     62 C          33.2079    0.4111   -8.0631 C.2       10 UNK         0.4970 
     63 O          33.1181    1.5486   -7.5944 O.2       10 UNK        -0.4914 
     64 N          33.9647   -0.5551   -7.5272 N.am      11 UNK        -0.4285 
     65 CA         34.7705   -0.4617   -6.2939 C.3       11 UNK         0.1007 
     66 C          36.0848    0.3645   -6.4354 C.2       11 UNK         0.5703 
     67 N          36.5098    0.7359   -7.6374 N.am      11 UNK        -0.7361 
     68 O          36.7530    0.6461   -5.4430 O.2       11 UNK        -0.4986 
     69 C69        33.9597   -0.0631   -5.0202 C.3       12 UNK        -0.0947 
     70 S70        32.3629   -0.9249   -4.8337 S.3       12 UNK        -0.2240 
     71 C71        32.8877   -2.5105   -4.1190 C.3       12 UNK         0.0194 
     72 H72        27.7259   -3.9039    3.7288 H         1 UNK         0.0906 
     73 H73        29.0334   -3.0882    4.5890 H         1 UNK         0.0906 
     74 H74        29.3819   -4.4942    3.5791 H         1 UNK         0.0906 
     75 H75        27.0416   -2.7260    1.9159 H         1 UNK         0.3140 
     76 H76        28.5957   -0.6454    0.7605 H         1 UNK         0.1085 
     77 H77        29.6991   -2.3958   -0.5136 H         1 UNK         0.0836 
     78 H78        28.6284   -1.5668   -1.5927 H         1 UNK         0.0836 
     79 H79        29.9991   -4.7807   -0.6069 H         1 UNK         0.0731 
     80 H80        28.9694   -5.9281   -1.4218 H         1 UNK         0.0731 
     81 H81        31.4770   -3.3034   -1.9118 H         1 UNK         0.1312 
     82 H82        31.6766   -3.8089   -6.1618 H         1 UNK         0.1406 
     83 H83        28.6048   -5.7862   -3.9143 H         1 UNK         0.1631 
     84 H84        29.2855   -6.4914   -6.3408 H         1 UNK         0.0717 
     85 H85        30.2441   -5.3712   -7.2758 H         1 UNK         0.0717 
     86 H86        28.5652   -2.4891   -5.9113 H         1 UNK         0.0934 
     87 H87        29.5708   -2.7727   -7.3100 H         1 UNK         0.0934 
     88 H88        27.7857   -2.1336   -8.8559 H         1 UNK         0.0739 
     89 H89        26.0260   -2.6822   -6.7461 H         1 UNK         0.3093 
     90 H90        23.3459   -0.5711   -7.4200 H         1 UNK         0.0818 
     91 H91        22.9091   -2.1851   -9.2850 H         1 UNK         0.0819 
     92 H92        23.3702   -3.5257   -8.2454 H         1 UNK         0.0819 
     93 H93        21.9398   -2.5615   -7.8720 H         1 UNK         0.0819 
     94 H94        23.3118   -2.8455   -5.8080 H         1 UNK         0.3041 
     95 H95        23.3858   -2.3303   -3.4014 H         1 UNK         0.0784 
     96 H96        24.8061   -4.1278   -4.4229 H         1 UNK         0.0793 
     97 H97        26.2674   -3.2815   -3.9330 H         1 UNK         0.0793 
     98 H98        25.1791   -3.9529   -2.7209 H         1 UNK         0.0793 
     99 H99        25.9752   -1.4167   -2.3764 H         1 UNK         0.3024 
    100 H100       25.5389    1.4901   -1.6966 H         1 UNK         0.1171 
    101 H101       23.5786    1.8567   -0.2761 H         1 UNK         0.0786 
    102 H102       23.9646    0.4659    0.7219 H         1 UNK         0.0786 
    103 H103       25.0149    1.8828    0.7308 H         1 UNK         0.0786 
    104 H104       27.3159    0.4306   -0.9491 H         1 UNK         0.2977 
    105 H105       26.8653   -0.1249   -6.0437 H         1 UNK         0.3127 
    106 H106       28.9596    1.8519   -6.4275 H         1 UNK         0.0770 
    107 H107       26.3473    1.9969   -4.8254 H         1 UNK         0.0814 
    108 H108       27.6922    3.1226   -4.7206 H         1 UNK         0.0814 
    109 H109       27.9047    1.4589   -4.1978 H         1 UNK         0.0814 
    110 H110       25.5586    1.4682   -7.4414 H         1 UNK         0.2983 
    111 H111       25.2991    4.0533   -8.6970 H         1 UNK         0.0947 
    112 H112       23.6908    1.4756   -9.1324 H         1 UNK         0.0806 
    113 H113       23.2302    3.0832   -9.6670 H         1 UNK         0.0806 
    114 H114       23.3204    2.7300   -7.9495 H         1 UNK         0.0806 
    115 H115       26.2951    0.8282   -9.8146 H         1 UNK         0.3000 
    116 H116       26.7821    1.5500  -12.5587 H         1 UNK         0.0850 
    117 H117       27.9042   -0.6626  -12.6321 H         1 UNK         0.0810 
    118 H118       26.3814   -0.7976  -11.7667 H         1 UNK         0.0810 
    119 H119       27.9033   -0.7571  -10.8778 H         1 UNK         0.0810 
    120 H120       28.4280    2.5078   -9.7735 H         1 UNK         0.3040 
    121 H121       30.2969    3.5374   -9.2813 H         1 UNK         0.0766 
    122 H122       29.7192    5.0058  -11.2220 H         1 UNK         0.0812 
    123 H123       30.7100    4.0015  -12.2805 H         1 UNK         0.0812 
    124 H124       31.4536    4.9031  -10.9696 H         1 UNK         0.0812 
    125 H125       30.4591    0.8082   -9.2052 H         1 UNK         0.3205 
    126 H126       33.1227   -0.0012  -10.1676 H         1 UNK         0.0754 
    127 H127       32.5220   -2.1669   -9.2299 H         1 UNK         0.0769 
    128 H128       31.0838   -1.5687  -10.0312 H         1 UNK         0.0769 
    129 H129       31.2173   -1.4705   -8.2776 H         1 UNK         0.0769 
    130 H130       33.9920   -1.4520   -7.9888 H         1 UNK         0.2981 
    131 H131       35.1211   -1.4804   -6.1277 H         1 UNK         0.0541 
    132 H132       37.3673    1.2593   -7.7174 H         1 UNK         0.3459 
    133 H133       35.9783    0.5070   -8.4616 H         1 UNK         0.3459 
    134 H134       33.7497    1.0076   -5.0290 H         1 UNK         0.0612 
    135 H135       34.5516   -0.2417   -4.1208 H         1 UNK         0.0612 
    136 H136       33.3180   -2.3397   -3.1311 H         1 UNK         0.0624 
    137 H137       33.6731   -2.9508   -4.7347 H         1 UNK         0.0624 
@<TRIPOS>BOND
     1    1    2 1    
     2    1   72 1    
     3    1   73 1    
     4    1   74 1    
     5    2    3 2    
     6    2    4 am   BACKBONE|DICT|INTERRES
     7    4    5 1    
     8    4   75 1    
     9    5    6 1    
    10    5   35 1    
    11    5   76 1    
    12    6    7 1    
    13    6   77 1    
    14    6   78 1    
    15    7    8 1    
    16    8    9 1    
    17    8   79 1    
    18    8   80 1    
    19    9   10 ar   
    20    9   14 ar   
    21   10   11 ar   
    22   10   81 1    
    23   11   12 ar   
    24   11   71 1    
    25   12   13 ar   
    26   12   82 1    
    27   13   14 ar   
    28   13   15 1    
    29   14   83 1    
    30   15   16 1    
    31   15   84 1    
    32   15   85 1    
    33   16   17 1    
    34   17   18 1    
    35   17   86 1    
    36   17   87 1    
    37   18   19 1    
    38   18   37 1    
    39   18   88 1    
    40   19   20 am   BACKBONE|DICT|INTERRES
    41   19   89 1    
    42   20   21 2    
    43   20   22 1    
    44   22   23 1    
    45   22   24 1    
    46   22   90 1    
    47   23   91 1    
    48   23   92 1    
    49   23   93 1    
    50   24   25 am   BACKBONE|DICT|INTERRES
    51   24   94 1    
    52   25   26 2    
    53   25   27 1    
    54   27   28 1    
    55   27   29 1    
    56   27   95 1    
    57   28   96 1    
    58   28   97 1    
    59   28   98 1    
    60   29   30 am   BACKBONE|DICT|INTERRES
    61   29   99 1    
    62   30   31 2    
    63   30   32 1    
    64   32   33 1    
    65   32   34 1    
    66   32  100 1    
    67   33  101 1    
    68   33  102 1    
    69   33  103 1    
    70   34   35 am   BACKBONE|DICT|INTERRES
    71   34  104 1    
    72   35   36 2    
    73   37   38 2    
    74   37   39 am   BACKBONE|DICT|INTERRES
    75   39   40 1    
    76   39  105 1    
    77   40   41 1    
    78   40   42 1    
    79   40  106 1    
    80   41  107 1    
    81   41  108 1    
    82   41  109 1    
    83   42   43 2    
    84   42   44 am   BACKBONE|DICT|INTERRES
    85   44   45 1    
    86   44  110 1    
    87   45   46 1    
    88   45   47 1    
    89   45  111 1    
    90   46  112 1    
    91   46  113 1    
    92   46  114 1    
    93   47   48 2    
    94   47   49 am   BACKBONE|DICT|INTERRES
    95   49   50 1    
    96   49  115 1    
    97   50   51 1    
    98   50   52 1    
    99   50  116 1    
   100   51  117 1    
   101   51  118 1    
   102   51  119 1    
   103   52   53 2    
   104   52   54 am   BACKBONE|DICT|INTERRES
   105   54   55 1    
   106   54  120 1    
   107   55   56 1    
   108   55   57 1    
   109   55  121 1    
   110   56  122 1    
   111   56  123 1    
   112   56  124 1    
   113   57   58 2    
   114   57   59 am   BACKBONE|DICT|INTERRES
   115   59   60 1    
   116   59  125 1    
   117   60   61 1    
   118   60   62 1    
   119   60  126 1    
   120   61  127 1    
   121   61  128 1    
   122   61  129 1    
   123   62   63 2    
   124   62   64 am   BACKBONE|DICT|INTERRES
   125   64   65 1    
   126   64  130 1    
   127   65   66 1    
   128   65   69 1    
   129   65  131 1    
   130   66   67 am   BACKBONE|DICT|INTERRES
   131   66   68 2    
   132   67  132 1    
   133   67  133 1    
   134   69   70 1    
   135   69  134 1    
   136   69  135 1    
   137   70   71 1    
   138   71  136 1    
   139   71  137 1    
@<TRIPOS>SUBSTRUCTURE
     1 UNK         1 GROUP             0       ****    0 ROOT    
