@<TRIPOS>MOLECULE
3R137
137   139    1
SMALL
USER_CHARGES


@<TRIPOS>ATOM
      1 CA         26.5862   -6.7290    1.4002 C.3       0 UNK        -0.2020 
      2 C          26.7847   -5.2828    0.9713 C.2       0 UNK         0.4855 
      3 O          26.4874   -4.3692    1.7420 O.2       0 UNK        -0.5197 
      4 N          27.2943   -5.0679   -0.2476 N.am      1 UNK        -0.4892 
      5 CA         27.5069   -3.7450   -0.8450 C.3       1 UNK         0.0835 
      6 C6         28.4306   -3.8128   -2.0864 C.3       12 UNK        -0.0855 
      7 S7         30.0621   -4.5589   -1.7389 S.3       12 UNK        -0.2931 
      8 C8         31.0403   -3.1389   -1.1440 C.3       12 UNK         0.0378 
      9 C9         31.1676   -2.0413   -2.1908 C.ar      12 UNK        -0.0802 
     10 C10        31.9624   -2.2323   -3.3230 C.ar      12 UNK        -0.0944 
     11 C11        32.0602   -1.2372   -4.3008 C.ar      12 UNK        -0.0787 
     12 C12        31.3493   -0.0420   -4.1407 C.ar      12 UNK        -0.0862 
     13 C13        30.5681    0.1721   -2.9981 C.ar      12 UNK        -0.0733 
     14 C14        30.4943   -0.8293   -2.0235 C.ar      12 UNK        -0.0832 
     15 C15        29.8346    1.4953   -2.7991 C.3       12 UNK         0.0240 
     16 S16        28.1016    1.2492   -2.2814 S.3       12 UNK        -0.2522 
     17 C17        27.1806    2.3796   -3.3798 C.3       12 UNK        -0.0967 
     18 CA         27.2517    2.0205   -4.8894 C.3       5 UNK         0.0660 
     19 N          27.2219    0.5811   -5.1462 N.am      5 UNK        -0.4015 
     20 C          27.5716   -0.0045   -6.2981 C.2       4 UNK         0.4946 
     21 O          27.9616    0.6084   -7.2908 O.2       4 UNK        -0.5353 
     22 CA         27.4338   -1.5342   -6.3589 C.3       4 UNK         0.0277 
     23 CB         28.7048   -2.2024   -5.8108 C.3       4 UNK        -0.1981 
     24 N          26.2642   -2.0257   -5.6248 N.am      4 UNK        -0.4209 
     25 C          24.9927   -1.7325   -5.9357 C.2       3 UNK         0.4942 
     26 O          24.6605   -1.0659   -6.9150 O.2       3 UNK        -0.5208 
     27 CA         23.9181   -2.2090   -4.9463 C.3       3 UNK         0.0250 
     28 CB         23.5668   -3.6850   -5.1894 C.3       3 UNK        -0.1990 
     29 N          24.3083   -2.0188   -3.5458 N.am      3 UNK        -0.4232 
     30 C          24.5735   -0.8406   -2.9675 C.2       2 UNK         0.4993 
     31 O          24.5322    0.2335   -3.5676 O.2       2 UNK        -0.5286 
     32 CA         24.9860   -0.8551   -1.4853 C.3       2 UNK         0.0209 
     33 CB         23.7738   -1.1195   -0.5705 C.3       2 UNK        -0.1931 
     34 N          26.1137   -1.7493   -1.1710 N.am      2 UNK        -0.4546 
     35 C          26.1618   -3.0894   -1.2230 C.2       1 UNK         0.5154 
     36 O          25.2223   -3.7970   -1.5986 O.2       1 UNK        -0.5181 
     37 C          26.1405    2.7356   -5.6775 C.2       5 UNK         0.5014 
     38 O          26.4101    3.7516   -6.3174 O.2       5 UNK        -0.5248 
     39 N          24.9254    2.1663   -5.6506 N.am      6 UNK        -0.4434 
     40 CA         23.7602    2.6239   -6.4128 C.3       6 UNK         0.0363 
     41 CB         22.5240    1.8133   -5.9924 C.3       6 UNK        -0.1936 
     42 C          23.9705    2.5467   -7.9354 C.2       6 UNK         0.5081 
     43 O          23.5532    3.4568   -8.6517 O.2       6 UNK        -0.5248 
     44 N          24.6441    1.4845   -8.3979 N.am      7 UNK        -0.4718 
     45 CA         25.0668    1.3032   -9.7900 C.3       7 UNK         0.0273 
     46 CB         25.4248   -0.1763  -10.0093 C.3       7 UNK        -0.1935 
     47 C          26.2517    2.1996  -10.2017 C.2       7 UNK         0.5018 
     48 O          26.5145    2.3173  -11.3993 O.2       7 UNK        -0.5186 
     49 N          26.9509    2.7861   -9.2170 N.am      8 UNK        -0.4240 
     50 CA         28.1902    3.5644   -9.3303 C.3       8 UNK         0.0235 
     51 CB         27.9406    4.8970  -10.0681 C.3       8 UNK        -0.2000 
     52 C          29.3472    2.7411   -9.9311 C.2       8 UNK         0.4941 
     53 O          30.1041    3.2484  -10.7622 O.2       8 UNK        -0.5273 
     54 N          29.4489    1.4733   -9.5132 N.am      9 UNK        -0.4262 
     55 CA         30.4614    0.5254   -9.9669 C.3       9 UNK         0.0264 
     56 CB         29.9539   -0.9044   -9.7146 C.3       9 UNK        -0.1955 
     57 C          31.7947    0.7550   -9.2416 C.2       9 UNK         0.5031 
     58 O          31.8025    1.0261   -8.0386 O.2       9 UNK        -0.5390 
     59 N          32.8989    0.5898   -9.9802 N.am      10 UNK        -0.4204 
     60 CA         34.2631    0.6072   -9.4418 C.3       10 UNK         0.0237 
     61 CB         35.2390    1.0097  -10.5605 C.3       10 UNK        -0.1985 
     62 C          34.6793   -0.7424   -8.8259 C.2       10 UNK         0.4970 
     63 O          35.6502   -0.7766   -8.0696 O.2       10 UNK        -0.4914 
     64 N          33.9561   -1.8182   -9.1718 N.am      11 UNK        -0.4285 
     65 CA         34.1825   -3.2116   -8.7459 C.3       11 UNK         0.1007 
     66 C          35.4756   -3.8668   -9.3239 C.2       11 UNK         0.5703 
     67 N          36.1059   -3.3003  -10.3465 N.am      11 UNK        -0.7361 
     68 O          35.8996   -4.9252   -8.8649 O.2       11 UNK        -0.4986 
     69 C69        34.0438   -3.4217   -7.2104 C.3       12 UNK        -0.0947 
     70 S70        32.4468   -2.8468   -6.5345 S.3       12 UNK        -0.2240 
     71 C71        32.9770   -1.4447   -5.4984 C.3       12 UNK         0.0194 
     72 H72        27.1589   -6.9345    2.3042 H         1 UNK         0.0906 
     73 H73        25.5340   -6.9157    1.6131 H         1 UNK         0.0906 
     74 H74        26.9059   -7.4307    0.6299 H         1 UNK         0.0906 
     75 H75        27.5158   -5.8532   -0.8430 H         1 UNK         0.3140 
     76 H76        27.9876   -3.1165   -0.0919 H         1 UNK         0.1085 
     77 H77        28.5734   -2.8213   -2.5164 H         1 UNK         0.0836 
     78 H78        27.9621   -4.4079   -2.8731 H         1 UNK         0.0836 
     79 H79        32.0366   -3.4886   -0.8696 H         1 UNK         0.0731 
     80 H80        30.5910   -2.7543   -0.2272 H         1 UNK         0.0731 
     81 H81        32.5019   -3.1615   -3.4473 H         1 UNK         0.1312 
     82 H82        31.4236    0.7286   -4.8966 H         1 UNK         0.1406 
     83 H83        29.9004   -0.6665   -1.1347 H         1 UNK         0.1631 
     84 H84        29.8758    2.0927   -3.7096 H         1 UNK         0.0717 
     85 H85        30.3506    2.0738   -2.0319 H         1 UNK         0.0717 
     86 H86        26.1473    2.3727   -3.0264 H         1 UNK         0.0934 
     87 H87        27.5399    3.3977   -3.2185 H         1 UNK         0.0934 
     88 H88        28.2027    2.3913   -5.2771 H         1 UNK         0.0739 
     89 H89        26.8885    0.0079   -4.3865 H         1 UNK         0.3093 
     90 H90        27.3177   -1.8163   -7.4074 H         1 UNK         0.0818 
     91 H91        28.8706   -1.9651   -4.7596 H         1 UNK         0.0819 
     92 H92        28.6648   -3.2870   -5.9108 H         1 UNK         0.0819 
     93 H93        29.5865   -1.8610   -6.3539 H         1 UNK         0.0819 
     94 H94        26.4373   -2.5922   -4.8082 H         1 UNK         0.3041 
     95 H95        23.0218   -1.6105   -5.1222 H         1 UNK         0.0784 
     96 H96        23.2650   -3.8491   -6.2249 H         1 UNK         0.0793 
     97 H97        24.4129   -4.3429   -4.9864 H         1 UNK         0.0793 
     98 H98        22.7374   -4.0030   -4.5573 H         1 UNK         0.0793 
     99 H99        24.4089   -2.8497   -2.9658 H         1 UNK         0.3024 
    100 H100       25.3392    0.1532   -1.2609 H         1 UNK         0.1171 
    101 H101       24.0485   -1.0407    0.4814 H         1 UNK         0.0786 
    102 H102       22.9834   -0.3903   -0.7537 H         1 UNK         0.0786 
    103 H103       23.3431   -2.1083   -0.7297 H         1 UNK         0.0786 
    104 H104       26.9539   -1.2642   -0.8862 H         1 UNK         0.2977 
    105 H105       24.7851    1.3589   -5.0453 H         1 UNK         0.3127 
    106 H106       23.5879    3.6709   -6.1549 H         1 UNK         0.0770 
    107 H107       22.6437    0.7521   -6.2129 H         1 UNK         0.0814 
    108 H108       21.6334    2.1584   -6.5191 H         1 UNK         0.0814 
    109 H109       22.3292    1.9120   -4.9243 H         1 UNK         0.0814 
    110 H110       24.8761    0.7350   -7.7515 H         1 UNK         0.2983 
    111 H111       24.2266    1.5547  -10.4409 H         1 UNK         0.0947 
    112 H112       25.7075   -0.3630  -11.0461 H         1 UNK         0.0806 
    113 H113       24.5806   -0.8273   -9.7812 H         1 UNK         0.0806 
    114 H114       26.2628   -0.4830   -9.3821 H         1 UNK         0.0806 
    115 H115       26.6433    2.6133   -8.2682 H         1 UNK         0.3000 
    116 H116       28.4901    3.8041   -8.3090 H         1 UNK         0.0850 
    117 H117       28.8284    5.5299  -10.0414 H         1 UNK         0.0810 
    118 H118       27.1288    5.4585   -9.6056 H         1 UNK         0.0810 
    119 H119       27.6859    4.7392  -11.1165 H         1 UNK         0.0810 
    120 H120       28.8406    1.1579   -8.7571 H         1 UNK         0.3040 
    121 H121       30.6045    0.6574  -11.0417 H         1 UNK         0.0766 
    122 H122       30.6567   -1.6459  -10.0955 H         1 UNK         0.0812 
    123 H123       29.8204   -1.0994   -8.6501 H         1 UNK         0.0812 
    124 H124       28.9976   -1.0793  -10.2081 H         1 UNK         0.0812 
    125 H125       32.8023    0.3980  -10.9677 H         1 UNK         0.3205 
    126 H126       34.3241    1.3590   -8.6516 H         1 UNK         0.0754 
    127 H127       36.2631    1.0581  -10.1871 H         1 UNK         0.0769 
    128 H128       34.9970    1.9943  -10.9614 H         1 UNK         0.0769 
    129 H129       35.2269    0.2982  -11.3871 H         1 UNK         0.0769 
    130 H130       33.1859   -1.6855   -9.8079 H         1 UNK         0.2981 
    131 H131       33.3736   -3.7764   -9.2102 H         1 UNK         0.0541 
    132 H132       35.7671   -2.4404  -10.7454 H         1 UNK         0.3459 
    133 H133       36.9332   -3.7393  -10.7189 H         1 UNK         0.3459 
    134 H134       34.1139   -4.4838   -6.9699 H         1 UNK         0.0612 
    135 H135       34.8739   -2.9482   -6.6856 H         1 UNK         0.0612 
    136 H136       33.9855   -1.6146   -5.1204 H         1 UNK         0.0624 
    137 H137       33.0265   -0.5482   -6.1176 H         1 UNK         0.0624 
@<TRIPOS>BOND
     1    1    2 1    
     2    1   72 1    
     3    1   73 1    
     4    1   74 1    
     5    2    3 2    
     6    2    4 am   BACKBONE|DICT|INTERRES
     7    4    5 1    
     8    4   75 1    
     9    5    6 1    
    10    5   35 1    
    11    5   76 1    
    12    6    7 1    
    13    6   77 1    
    14    6   78 1    
    15    7    8 1    
    16    8    9 1    
    17    8   79 1    
    18    8   80 1    
    19    9   10 ar   
    20    9   14 ar   
    21   10   11 ar   
    22   10   81 1    
    23   11   12 ar   
    24   11   71 1    
    25   12   13 ar   
    26   12   82 1    
    27   13   14 ar   
    28   13   15 1    
    29   14   83 1    
    30   15   16 1    
    31   15   84 1    
    32   15   85 1    
    33   16   17 1    
    34   17   18 1    
    35   17   86 1    
    36   17   87 1    
    37   18   19 1    
    38   18   37 1    
    39   18   88 1    
    40   19   20 am   BACKBONE|DICT|INTERRES
    41   19   89 1    
    42   20   21 2    
    43   20   22 1    
    44   22   23 1    
    45   22   24 1    
    46   22   90 1    
    47   23   91 1    
    48   23   92 1    
    49   23   93 1    
    50   24   25 am   BACKBONE|DICT|INTERRES
    51   24   94 1    
    52   25   26 2    
    53   25   27 1    
    54   27   28 1    
    55   27   29 1    
    56   27   95 1    
    57   28   96 1    
    58   28   97 1    
    59   28   98 1    
    60   29   30 am   BACKBONE|DICT|INTERRES
    61   29   99 1    
    62   30   31 2    
    63   30   32 1    
    64   32   33 1    
    65   32   34 1    
    66   32  100 1    
    67   33  101 1    
    68   33  102 1    
    69   33  103 1    
    70   34   35 am   BACKBONE|DICT|INTERRES
    71   34  104 1    
    72   35   36 2    
    73   37   38 2    
    74   37   39 am   BACKBONE|DICT|INTERRES
    75   39   40 1    
    76   39  105 1    
    77   40   41 1    
    78   40   42 1    
    79   40  106 1    
    80   41  107 1    
    81   41  108 1    
    82   41  109 1    
    83   42   43 2    
    84   42   44 am   BACKBONE|DICT|INTERRES
    85   44   45 1    
    86   44  110 1    
    87   45   46 1    
    88   45   47 1    
    89   45  111 1    
    90   46  112 1    
    91   46  113 1    
    92   46  114 1    
    93   47   48 2    
    94   47   49 am   BACKBONE|DICT|INTERRES
    95   49   50 1    
    96   49  115 1    
    97   50   51 1    
    98   50   52 1    
    99   50  116 1    
   100   51  117 1    
   101   51  118 1    
   102   51  119 1    
   103   52   53 2    
   104   52   54 am   BACKBONE|DICT|INTERRES
   105   54   55 1    
   106   54  120 1    
   107   55   56 1    
   108   55   57 1    
   109   55  121 1    
   110   56  122 1    
   111   56  123 1    
   112   56  124 1    
   113   57   58 2    
   114   57   59 am   BACKBONE|DICT|INTERRES
   115   59   60 1    
   116   59  125 1    
   117   60   61 1    
   118   60   62 1    
   119   60  126 1    
   120   61  127 1    
   121   61  128 1    
   122   61  129 1    
   123   62   63 2    
   124   62   64 am   BACKBONE|DICT|INTERRES
   125   64   65 1    
   126   64  130 1    
   127   65   66 1    
   128   65   69 1    
   129   65  131 1    
   130   66   67 am   BACKBONE|DICT|INTERRES
   131   66   68 2    
   132   67  132 1    
   133   67  133 1    
   134   69   70 1    
   135   69  134 1    
   136   69  135 1    
   137   70   71 1    
   138   71  136 1    
   139   71  137 1    
@<TRIPOS>SUBSTRUCTURE
     1 UNK         1 GROUP             0       ****    0 ROOT    
