@<TRIPOS>MOLECULE
3R137
137   139    1
SMALL
USER_CHARGES


@<TRIPOS>ATOM
      1 CA         25.0485   -4.4848    2.2992 C.3       0 UNK        -0.2020 
      2 C          26.3793   -5.0097    1.7662 C.2       0 UNK         0.4855 
      3 O          26.5872   -6.2212    1.7578 O.2       0 UNK        -0.5197 
      4 N          27.3135   -4.1571    1.3203 N.am      1 UNK        -0.4892 
      5 CA         27.2192   -2.6949    1.1979 C.3       1 UNK         0.0835 
      6 C6         28.6091   -2.0433    0.9645 C.3       12 UNK        -0.0855 
      7 S7         29.6120   -2.8477   -0.3368 S.3       12 UNK        -0.2931 
      8 C8         29.3902   -1.7003   -1.7296 C.3       12 UNK         0.0378 
      9 C9         30.0140   -2.2594   -2.9987 C.ar      12 UNK        -0.0802 
     10 C10        31.1992   -1.7178   -3.5025 C.ar      12 UNK        -0.0944 
     11 C11        31.7796   -2.2370   -4.6634 C.ar      12 UNK        -0.0787 
     12 C12        31.1655   -3.3098   -5.3205 C.ar      12 UNK        -0.0862 
     13 C13        29.9752   -3.8568   -4.8293 C.ar      12 UNK        -0.0733 
     14 C14        29.4034   -3.3223   -3.6702 C.ar      12 UNK        -0.0832 
     15 C15        29.3342   -5.0556   -5.5196 C.3       12 UNK         0.0240 
     16 S16        28.4254   -4.6116   -7.0363 S.3       12 UNK        -0.2522 
     17 C17        27.0099   -3.6649   -6.3745 C.3       12 UNK        -0.0967 
     18 CA         26.7081   -2.3627   -7.1575 C.3       5 UNK         0.0660 
     19 N          25.4983   -1.7000   -6.6651 N.am      5 UNK        -0.4015 
     20 C          24.8435   -0.7258   -7.3151 C.2       4 UNK         0.4946 
     21 O          25.1524   -0.3185   -8.4341 O.2       4 UNK        -0.5353 
     22 CA         23.6691   -0.0614   -6.5764 C.3       4 UNK         0.0277 
     23 CB         22.3836   -0.8860   -6.7482 C.3       4 UNK        -0.1981 
     24 N          23.9395    0.1419   -5.1514 N.am      4 UNK        -0.4209 
     25 C          24.8943    0.9522   -4.6715 C.2       3 UNK         0.4942 
     26 O          25.5960    1.6732   -5.3789 O.2       3 UNK        -0.5208 
     27 CA         25.1422    0.9212   -3.1534 C.3       3 UNK         0.0250 
     28 CB         24.2967    1.9932   -2.4484 C.3       3 UNK        -0.1990 
     29 N          24.8958   -0.3846   -2.5307 N.am      3 UNK        -0.4232 
     30 C          25.5183   -1.5254   -2.8569 C.2       2 UNK         0.4993 
     31 O          26.3618   -1.6106   -3.7525 O.2       2 UNK        -0.5286 
     32 CA         25.1274   -2.7788   -2.0535 C.3       2 UNK         0.0209 
     33 CB         25.0780   -4.0301   -2.9487 C.3       2 UNK        -0.1931 
     34 N          26.0474   -3.0253   -0.9415 N.am      2 UNK        -0.4546 
     35 C          26.1949   -2.2414    0.1365 C.2       1 UNK         0.5154 
     36 O          25.5350   -1.2210    0.3349 O.2       1 UNK        -0.5181 
     37 C          27.8907   -1.3764   -7.1675 C.2       5 UNK         0.5014 
     38 O          28.5687   -1.2701   -8.1900 O.2       5 UNK        -0.5248 
     39 N          28.0679   -0.6325   -6.0636 N.am      6 UNK        -0.4434 
     40 CA         29.0825    0.4167   -5.9211 C.3       6 UNK         0.0363 
     41 CB         28.9874    1.0490   -4.5239 C.3       6 UNK        -0.1936 
     42 C          28.9832    1.4991   -7.0104 C.2       6 UNK         0.5081 
     43 O          30.0015    1.8709   -7.5933 O.2       6 UNK        -0.5248 
     44 N          27.7537    1.9528   -7.2919 N.am      7 UNK        -0.4718 
     45 CA         27.4389    2.8969   -8.3629 C.3       7 UNK         0.0273 
     46 CB         25.9856    3.3763   -8.2191 C.3       7 UNK        -0.1935 
     47 C          27.6870    2.3161   -9.7644 C.2       7 UNK         0.5018 
     48 O          28.3266    2.9815  -10.5791 O.2       7 UNK        -0.5186 
     49 N          27.1904    1.0961  -10.0217 N.am      8 UNK        -0.4240 
     50 CA         27.3086    0.4089  -11.3124 C.3       8 UNK         0.0235 
     51 CB         26.4352   -0.8559  -11.3172 C.3       8 UNK        -0.2000 
     52 C          28.7564    0.0630  -11.6929 C.2       8 UNK         0.4941 
     53 O          29.1449    0.2791  -12.8416 O.2       8 UNK        -0.5273 
     54 N          29.5287   -0.4559  -10.7295 N.am      9 UNK        -0.4262 
     55 CA         30.9416   -0.8001  -10.9060 C.3       9 UNK         0.0264 
     56 CB         31.3142   -1.9085   -9.9093 C.3       9 UNK        -0.1955 
     57 C          31.8878    0.4102  -10.7823 C.2       9 UNK         0.5031 
     58 O          33.0590    0.2777  -11.1411 O.2       9 UNK        -0.5390 
     59 N          31.3735    1.5533  -10.2997 N.am      10 UNK        -0.4204 
     60 CA         32.0654    2.8259  -10.0611 C.3       10 UNK         0.0237 
     61 CB         32.5168    3.4664  -11.3912 C.3       10 UNK        -0.1985 
     62 C          33.2063    2.6706   -9.0390 C.2       10 UNK         0.4970 
     63 O          34.3686    2.9351   -9.3549 O.2       10 UNK        -0.4914 
     64 N          32.8430    2.2173   -7.8371 N.am      11 UNK        -0.4285 
     65 CA         33.7564    1.8741   -6.7405 C.3       11 UNK         0.1007 
     66 C          33.1903    2.2924   -5.3552 C.2       11 UNK         0.5703 
     67 N          33.9216    2.0351   -4.2783 N.am      11 UNK        -0.7361 
     68 O          32.1126    2.8722   -5.2393 O.2       11 UNK        -0.4986 
     69 C69        34.2044    0.3863   -6.8230 C.3       12 UNK        -0.0947 
     70 S70        32.8062   -0.7853   -6.7720 S.3       12 UNK        -0.2240 
     71 C71        33.0758   -1.6422   -5.1939 C.3       12 UNK         0.0194 
     72 H72        25.1874   -3.6470    2.9809 H         1 UNK         0.0906 
     73 H73        24.4015   -4.1719    1.4804 H         1 UNK         0.0906 
     74 H74        24.5277   -5.2673    2.8509 H         1 UNK         0.0906 
     75 H75        28.1871   -4.5396    0.9837 H         1 UNK         0.3140 
     76 H76        26.8548   -2.3087    2.1517 H         1 UNK         0.1085 
     77 H77        28.5169   -0.9740    0.7616 H         1 UNK         0.0836 
     78 H78        29.1847   -2.1066    1.8894 H         1 UNK         0.0836 
     79 H79        29.8305   -0.7353   -1.4738 H         1 UNK         0.0731 
     80 H80        28.3297   -1.5196   -1.8984 H         1 UNK         0.0731 
     81 H81        31.6720   -0.8921   -2.9885 H         1 UNK         0.1312 
     82 H82        31.6139   -3.7168   -6.2165 H         1 UNK         0.1406 
     83 H83        28.4883   -3.7404   -3.2747 H         1 UNK         0.1631 
     84 H84        28.6596   -5.5774   -4.8389 H         1 UNK         0.0717 
     85 H85        30.1123   -5.7745   -5.7801 H         1 UNK         0.0717 
     86 H86        26.1374   -4.3194   -6.3995 H         1 UNK         0.0934 
     87 H87        27.1812   -3.4420   -5.3237 H         1 UNK         0.0934 
     88 H88        26.5179   -2.6444   -8.1956 H         1 UNK         0.0739 
     89 H89        25.2350   -1.9074   -5.7121 H         1 UNK         0.3093 
     90 H90        23.5088    0.9197   -7.0290 H         1 UNK         0.0818 
     91 H91        21.5262   -0.3817   -6.3021 H         1 UNK         0.0819 
     92 H92        22.1554   -1.0340   -7.8048 H         1 UNK         0.0819 
     93 H93        22.4683   -1.8731   -6.2921 H         1 UNK         0.0819 
     94 H94        23.3958   -0.3996   -4.4955 H         1 UNK         0.3041 
     95 H95        26.1951    1.1594   -2.9922 H         1 UNK         0.0784 
     96 H96        24.4817    2.9796   -2.8766 H         1 UNK         0.0793 
     97 H97        23.2286    1.7924   -2.5410 H         1 UNK         0.0793 
     98 H98        24.5373    2.0534   -1.3867 H         1 UNK         0.0793 
     99 H99        24.2659   -0.3931   -1.7401 H         1 UNK         0.3024 
    100 H100       24.1272   -2.6250   -1.6421 H         1 UNK         0.1171 
    101 H101       24.4263   -3.8724   -3.8091 H         1 UNK         0.0786 
    102 H102       26.0633   -4.2982   -3.3298 H         1 UNK         0.0786 
    103 H103       24.6882   -4.8899   -2.4034 H         1 UNK         0.0786 
    104 H104       26.6390   -3.8406   -1.0115 H         1 UNK         0.2977 
    105 H105       27.4740   -0.8136   -5.2600 H         1 UNK         0.3127 
    106 H106       30.0555   -0.0674   -6.0135 H         1 UNK         0.0770 
    107 H107       28.0891    1.6549   -4.4120 H         1 UNK         0.0814 
    108 H108       29.8410    1.7012   -4.3384 H         1 UNK         0.0814 
    109 H109       28.9788    0.2940   -3.7408 H         1 UNK         0.0814 
    110 H110       26.9759    1.6387   -6.7163 H         1 UNK         0.2983 
    111 H111       28.0948    3.7622   -8.2443 H         1 UNK         0.0947 
    112 H112       25.7294    4.0906   -9.0027 H         1 UNK         0.0806 
    113 H113       25.8267    3.8733   -7.2619 H         1 UNK         0.0806 
    114 H114       25.2782    2.5488   -8.2849 H         1 UNK         0.0806 
    115 H115       26.6501    0.6205   -9.3032 H         1 UNK         0.3000 
    116 H116       26.9235    1.0855  -12.0783 H         1 UNK         0.0850 
    117 H117       26.5123   -1.3828  -12.2693 H         1 UNK         0.0810 
    118 H118       25.3836   -0.6110  -11.1677 H         1 UNK         0.0810 
    119 H119       26.7312   -1.5524  -10.5318 H         1 UNK         0.0810 
    120 H120       29.1256   -0.6409   -9.8098 H         1 UNK         0.3040 
    121 H121       31.0803   -1.2040  -11.9112 H         1 UNK         0.0766 
    122 H122       31.1031   -1.6085   -8.8842 H         1 UNK         0.0812 
    123 H123       32.3744   -2.1582   -9.9680 H         1 UNK         0.0812 
    124 H124       30.7523   -2.8215  -10.1059 H         1 UNK         0.0812 
    125 H125       30.4089    1.5313   -9.9952 H         1 UNK         0.3205 
    126 H126       31.3300    3.4934   -9.6088 H         1 UNK         0.0754 
    127 H127       32.9506    4.4524  -11.2201 H         1 UNK         0.0769 
    128 H128       31.6751    3.5955  -12.0718 H         1 UNK         0.0769 
    129 H129       33.2701    2.8642  -11.9001 H         1 UNK         0.0769 
    130 H130       31.8541    2.0641   -7.6422 H         1 UNK         0.2981 
    131 H131       34.6504    2.4898   -6.8537 H         1 UNK         0.0541 
    132 H132       34.8201    1.5853   -4.3502 H         1 UNK         0.3459 
    133 H133       33.5720    2.3146   -3.3756 H         1 UNK         0.3459 
    134 H134       34.9275    0.1465   -6.0426 H         1 UNK         0.0612 
    135 H135       34.7317    0.2214   -7.7638 H         1 UNK         0.0612 
    136 H136       33.4952   -0.9443   -4.4678 H         1 UNK         0.0624 
    137 H137       33.8163   -2.4309   -5.3332 H         1 UNK         0.0624 
@<TRIPOS>BOND
     1    1    2 1    
     2    1   72 1    
     3    1   73 1    
     4    1   74 1    
     5    2    3 2    
     6    2    4 am   BACKBONE|DICT|INTERRES
     7    4    5 1    
     8    4   75 1    
     9    5    6 1    
    10    5   35 1    
    11    5   76 1    
    12    6    7 1    
    13    6   77 1    
    14    6   78 1    
    15    7    8 1    
    16    8    9 1    
    17    8   79 1    
    18    8   80 1    
    19    9   10 ar   
    20    9   14 ar   
    21   10   11 ar   
    22   10   81 1    
    23   11   12 ar   
    24   11   71 1    
    25   12   13 ar   
    26   12   82 1    
    27   13   14 ar   
    28   13   15 1    
    29   14   83 1    
    30   15   16 1    
    31   15   84 1    
    32   15   85 1    
    33   16   17 1    
    34   17   18 1    
    35   17   86 1    
    36   17   87 1    
    37   18   19 1    
    38   18   37 1    
    39   18   88 1    
    40   19   20 am   BACKBONE|DICT|INTERRES
    41   19   89 1    
    42   20   21 2    
    43   20   22 1    
    44   22   23 1    
    45   22   24 1    
    46   22   90 1    
    47   23   91 1    
    48   23   92 1    
    49   23   93 1    
    50   24   25 am   BACKBONE|DICT|INTERRES
    51   24   94 1    
    52   25   26 2    
    53   25   27 1    
    54   27   28 1    
    55   27   29 1    
    56   27   95 1    
    57   28   96 1    
    58   28   97 1    
    59   28   98 1    
    60   29   30 am   BACKBONE|DICT|INTERRES
    61   29   99 1    
    62   30   31 2    
    63   30   32 1    
    64   32   33 1    
    65   32   34 1    
    66   32  100 1    
    67   33  101 1    
    68   33  102 1    
    69   33  103 1    
    70   34   35 am   BACKBONE|DICT|INTERRES
    71   34  104 1    
    72   35   36 2    
    73   37   38 2    
    74   37   39 am   BACKBONE|DICT|INTERRES
    75   39   40 1    
    76   39  105 1    
    77   40   41 1    
    78   40   42 1    
    79   40  106 1    
    80   41  107 1    
    81   41  108 1    
    82   41  109 1    
    83   42   43 2    
    84   42   44 am   BACKBONE|DICT|INTERRES
    85   44   45 1    
    86   44  110 1    
    87   45   46 1    
    88   45   47 1    
    89   45  111 1    
    90   46  112 1    
    91   46  113 1    
    92   46  114 1    
    93   47   48 2    
    94   47   49 am   BACKBONE|DICT|INTERRES
    95   49   50 1    
    96   49  115 1    
    97   50   51 1    
    98   50   52 1    
    99   50  116 1    
   100   51  117 1    
   101   51  118 1    
   102   51  119 1    
   103   52   53 2    
   104   52   54 am   BACKBONE|DICT|INTERRES
   105   54   55 1    
   106   54  120 1    
   107   55   56 1    
   108   55   57 1    
   109   55  121 1    
   110   56  122 1    
   111   56  123 1    
   112   56  124 1    
   113   57   58 2    
   114   57   59 am   BACKBONE|DICT|INTERRES
   115   59   60 1    
   116   59  125 1    
   117   60   61 1    
   118   60   62 1    
   119   60  126 1    
   120   61  127 1    
   121   61  128 1    
   122   61  129 1    
   123   62   63 2    
   124   62   64 am   BACKBONE|DICT|INTERRES
   125   64   65 1    
   126   64  130 1    
   127   65   66 1    
   128   65   69 1    
   129   65  131 1    
   130   66   67 am   BACKBONE|DICT|INTERRES
   131   66   68 2    
   132   67  132 1    
   133   67  133 1    
   134   69   70 1    
   135   69  134 1    
   136   69  135 1    
   137   70   71 1    
   138   71  136 1    
   139   71  137 1    
@<TRIPOS>SUBSTRUCTURE
     1 UNK         1 GROUP             0       ****    0 ROOT    
