@<TRIPOS>MOLECULE
3R137
137   139    1
SMALL
USER_CHARGES


@<TRIPOS>ATOM
      1 CA         27.1661   -2.1592    3.8183 C.3       0 UNK        -0.2020 
      2 C          27.1593   -1.1920    2.6442 C.2       0 UNK         0.4855 
      3 O          26.7693   -0.0355    2.8052 O.2       0 UNK        -0.5197 
      4 N          27.5883   -1.6555    1.4632 N.am      1 UNK        -0.4892 
      5 CA         27.6270   -0.8777    0.2172 C.3       1 UNK         0.0835 
      6 C6         28.5677   -1.5251   -0.8285 C.3       12 UNK        -0.0855 
      7 S7         28.1490   -3.2591   -1.2364 S.3       12 UNK        -0.2931 
      8 C8         29.7720   -3.9120   -1.7420 C.3       12 UNK         0.0378 
      9 C9         30.2015   -3.3603   -3.0935 C.ar      12 UNK        -0.0802 
     10 C10        30.9879   -2.2074   -3.1690 C.ar      12 UNK        -0.0944 
     11 C11        31.3717   -1.6888   -4.4086 C.ar      12 UNK        -0.0787 
     12 C12        30.9693   -2.3377   -5.5816 C.ar      12 UNK        -0.0862 
     13 C13        30.1962   -3.5015   -5.5185 C.ar      12 UNK        -0.0733 
     14 C14        29.8156   -4.0067   -4.2711 C.ar      12 UNK        -0.0832 
     15 C15        29.7961   -4.2361   -6.7902 C.3       12 UNK         0.0240 
     16 S16        27.9950   -4.1815   -7.0706 S.3       12 UNK        -0.2522 
     17 C17        27.8530   -3.3094   -8.6711 C.3       12 UNK        -0.0967 
     18 CA         27.2081   -1.9067   -8.5700 C.3       5 UNK         0.0660 
     19 N          25.8829   -1.9401   -7.9478 N.am      5 UNK        -0.4015 
     20 C          25.0429   -0.8998   -7.8574 C.2       4 UNK         0.4946 
     21 O          25.2714    0.2066   -8.3502 O.2       4 UNK        -0.5353 
     22 CA         23.7612   -1.1076   -7.0326 C.3       4 UNK         0.0277 
     23 CB         22.5897   -1.4798   -7.9548 C.3       4 UNK        -0.1981 
     24 N          23.8802   -2.1071   -5.9607 N.am      4 UNK        -0.4209 
     25 C          24.7490   -2.0441   -4.9408 C.2       3 UNK         0.4942 
     26 O          25.6161   -1.1754   -4.8313 O.2       3 UNK        -0.5208 
     27 CA         24.6659   -3.1639   -3.8917 C.3       3 UNK         0.0250 
     28 CB         25.8340   -4.1480   -4.0604 C.3       3 UNK        -0.1990 
     29 N          24.6855   -2.6211   -2.5328 N.am      3 UNK        -0.4232 
     30 C          23.6869   -1.9159   -1.9808 C.2       2 UNK         0.4993 
     31 O          22.6224   -1.6822   -2.5558 O.2       2 UNK        -0.5286 
     32 CA         23.8756   -1.4075   -0.5390 C.3       2 UNK         0.0209 
     33 CB         22.9785   -2.1941    0.4320 C.3       2 UNK        -0.1931 
     34 N          25.2590   -1.4826   -0.0640 N.am      2 UNK        -0.4546 
     35 C          26.2262   -0.6083   -0.3755 C.2       1 UNK         0.5154 
     36 O          26.0488    0.3771   -1.0925 O.2       1 UNK        -0.5181 
     37 C          28.1615   -0.8773   -7.9308 C.2       5 UNK         0.5014 
     38 O          29.0156   -0.3503   -8.6428 O.2       5 UNK        -0.5248 
     39 N          27.9763   -0.5512   -6.6420 N.am      6 UNK        -0.4434 
     40 CA         28.7402    0.4842   -5.9431 C.3       6 UNK         0.0363 
     41 CB         28.4462    0.4107   -4.4380 C.3       6 UNK        -0.1936 
     42 C          28.4858    1.9022   -6.4828 C.2       6 UNK         0.5081 
     43 O          29.3693    2.7509   -6.3661 O.2       6 UNK        -0.5248 
     44 N          27.3072    2.1271   -7.0784 N.am      7 UNK        -0.4718 
     45 CA         26.9577    3.3632   -7.7739 C.3       7 UNK         0.0273 
     46 CB         25.4871    3.7107   -7.4877 C.3       7 UNK        -0.1935 
     47 C          27.1988    3.2328   -9.2849 C.2       7 UNK         0.5018 
     48 O          27.7526    4.1534   -9.8865 O.2       7 UNK        -0.5186 
     49 N          26.7587    2.1116   -9.8754 N.am      8 UNK        -0.4240 
     50 CA         26.7551    1.8932  -11.3238 C.3       8 UNK         0.0235 
     51 CB         25.7949    0.7422  -11.6653 C.3       8 UNK        -0.2000 
     52 C          28.1424    1.6380  -11.9368 C.2       8 UNK         0.4941 
     53 O          28.3792    2.0819  -13.0615 O.2       8 UNK        -0.5273 
     54 N          29.0156    0.9185  -11.2196 N.am      9 UNK        -0.4262 
     55 CA         30.3447    0.5141  -11.6927 C.3       9 UNK         0.0264 
     56 CB         30.4002   -1.0204  -11.7922 C.3       9 UNK        -0.1955 
     57 C          31.4720    1.0300  -10.7860 C.2       9 UNK         0.5031 
     58 O          32.5418    1.3592  -11.3012 O.2       9 UNK        -0.5390 
     59 N          31.2144    1.0858   -9.4709 N.am      10 UNK        -0.4204 
     60 CA         32.1460    1.3909   -8.3794 C.3       10 UNK         0.0237 
     61 CB         32.8070    2.7764   -8.5575 C.3       10 UNK        -0.1985 
     62 C          33.1611    0.2532   -8.1475 C.2       10 UNK         0.4970 
     63 O          33.0418   -0.8202   -8.7436 O.2       10 UNK        -0.4914 
     64 N          34.1083    0.4858   -7.2335 N.am      11 UNK        -0.4285 
     65 CA         35.0980   -0.5042   -6.7802 C.3       11 UNK         0.1007 
     66 C          36.4690    0.1157   -6.3824 C.2       11 UNK         0.5703 
     67 N          36.7461    1.3745   -6.7058 N.am      11 UNK        -0.7361 
     68 O          37.3109   -0.5586   -5.7936 O.2       11 UNK        -0.4986 
     69 C69        34.5065   -1.4824   -5.7235 C.3       12 UNK        -0.0947 
     70 S70        33.9617   -0.6793   -4.1742 S.3       12 UNK        -0.2240 
     71 C71        32.1860   -0.4047   -4.4707 C.3       12 UNK         0.0194 
     72 H72        27.5400   -3.1430    3.5350 H         1 UNK         0.0906 
     73 H73        27.7984   -1.7740    4.6178 H         1 UNK         0.0906 
     74 H74        26.1567   -2.2801    4.2105 H         1 UNK         0.0906 
     75 H75        27.9023   -2.6132    1.3809 H         1 UNK         0.3140 
     76 H76        28.0410    0.1039    0.4599 H         1 UNK         0.1085 
     77 H77        28.5820   -0.9393   -1.7485 H         1 UNK         0.0836 
     78 H78        29.5887   -1.4929   -0.4458 H         1 UNK         0.0836 
     79 H79        30.5183   -3.6856   -0.9789 H         1 UNK         0.0731 
     80 H80        29.7118   -5.0003   -1.7911 H         1 UNK         0.0731 
     81 H81        31.2943   -1.7041   -2.2624 H         1 UNK         0.1312 
     82 H82        31.2593   -1.9374   -6.5439 H         1 UNK         0.1406 
     83 H83        29.2113   -4.9023   -4.2192 H         1 UNK         0.1631 
     84 H84        30.1015   -5.2799   -6.7060 H         1 UNK         0.0717 
     85 H85        30.3380   -3.8357   -7.6475 H         1 UNK         0.0717 
     86 H86        28.8219   -3.2507   -9.1700 H         1 UNK         0.0934 
     87 H87        27.2415   -3.9344   -9.3238 H         1 UNK         0.0934 
     88 H88        27.0507   -1.5632   -9.5933 H         1 UNK         0.0739 
     89 H89        25.6288   -2.8053   -7.4941 H         1 UNK         0.3093 
     90 H90        23.5317   -0.1511   -6.5582 H         1 UNK         0.0818 
     91 H91        21.6486   -1.5198   -7.4061 H         1 UNK         0.0819 
     92 H92        22.4674   -0.7400   -8.7476 H         1 UNK         0.0819 
     93 H93        22.7427   -2.4478   -8.4337 H         1 UNK         0.0819 
     94 H94        23.2077   -2.8610   -5.9751 H         1 UNK         0.3041 
     95 H95        23.7306   -3.7127   -4.0214 H         1 UNK         0.0784 
     96 H96        25.7845   -4.6478   -5.0281 H         1 UNK         0.0793 
     97 H97        26.7988   -3.6413   -4.0040 H         1 UNK         0.0793 
     98 H98        25.8183   -4.9243   -3.2952 H         1 UNK         0.0793 
     99 H99        25.5428   -2.7333   -2.0106 H         1 UNK         0.3024 
    100 H100       23.5597   -0.3616   -0.5260 H         1 UNK         0.1171 
    101 H101       23.0502   -1.8001    1.4461 H         1 UNK         0.0786 
    102 H102       21.9304   -2.1300    0.1357 H         1 UNK         0.0786 
    103 H103       23.2445   -3.2515    0.4615 H         1 UNK         0.0786 
    104 H104       25.5001   -2.2602    0.5337 H         1 UNK         0.2977 
    105 H105       27.2270   -0.9904   -6.1153 H         1 UNK         0.3127 
    106 H106       29.7967    0.2664   -6.0961 H         1 UNK         0.0770 
    107 H107       27.4211    0.7048   -4.2097 H         1 UNK         0.0814 
    108 H108       29.1088    1.0710   -3.8776 H         1 UNK         0.0814 
    109 H109       28.5939   -0.6010   -4.0608 H         1 UNK         0.0814 
    110 H110       26.6489    1.3610   -7.1572 H         1 UNK         0.2983 
    111 H111       27.5737    4.1878   -7.4076 H         1 UNK         0.0947 
    112 H112       25.1979    4.6311   -7.9969 H         1 UNK         0.0806 
    113 H113       25.3188    3.8642   -6.4217 H         1 UNK         0.0806 
    114 H114       24.8086    2.9251   -7.8227 H         1 UNK         0.0806 
    115 H115       26.2737    1.4183   -9.3086 H         1 UNK         0.3000 
    116 H116       26.3608    2.7989  -11.7904 H         1 UNK         0.0850 
    117 H117       25.7271    0.5979  -12.7445 H         1 UNK         0.0810 
    118 H118       24.7871    0.9450  -11.3019 H         1 UNK         0.0810 
    119 H119       26.1217   -0.2019  -11.2312 H         1 UNK         0.0810 
    120 H120       28.7510    0.5985  -10.2933 H         1 UNK         0.3040 
    121 H121       30.5337    0.9184  -12.6893 H         1 UNK         0.0766 
    122 H122       30.2379   -1.4962  -10.8244 H         1 UNK         0.0812 
    123 H123       31.3732   -1.3518  -12.1575 H         1 UNK         0.0812 
    124 H124       29.6475   -1.3999  -12.4833 H         1 UNK         0.0812 
    125 H125       30.3385    0.6657   -9.1612 H         1 UNK         0.3205 
    126 H126       31.5299    1.4357   -7.4815 H         1 UNK         0.0754 
    127 H127       33.2841    3.1114   -7.6364 H         1 UNK         0.0769 
    128 H128       32.0679    3.5329   -8.8222 H         1 UNK         0.0769 
    129 H129       33.5707    2.7687   -9.3359 H         1 UNK         0.0769 
    130 H130       34.1358    1.3749   -6.7566 H         1 UNK         0.2981 
    131 H131       35.3573   -1.1127   -7.6485 H         1 UNK         0.0541 
    132 H132       36.1098    1.9286   -7.2546 H         1 UNK         0.3459 
    133 H133       37.6423    1.7556   -6.4453 H         1 UNK         0.3459 
    134 H134       35.2420   -2.2450   -5.4631 H         1 UNK         0.0612 
    135 H135       33.6738   -2.0337   -6.1583 H         1 UNK         0.0612 
    136 H136       32.0473    0.0935   -5.4281 H         1 UNK         0.0624 
    137 H137       31.8140    0.2914   -3.7175 H         1 UNK         0.0624 
@<TRIPOS>BOND
     1    1    2 1    
     2    1   72 1    
     3    1   73 1    
     4    1   74 1    
     5    2    3 2    
     6    2    4 am   BACKBONE|DICT|INTERRES
     7    4    5 1    
     8    4   75 1    
     9    5    6 1    
    10    5   35 1    
    11    5   76 1    
    12    6    7 1    
    13    6   77 1    
    14    6   78 1    
    15    7    8 1    
    16    8    9 1    
    17    8   79 1    
    18    8   80 1    
    19    9   10 ar   
    20    9   14 ar   
    21   10   11 ar   
    22   10   81 1    
    23   11   12 ar   
    24   11   71 1    
    25   12   13 ar   
    26   12   82 1    
    27   13   14 ar   
    28   13   15 1    
    29   14   83 1    
    30   15   16 1    
    31   15   84 1    
    32   15   85 1    
    33   16   17 1    
    34   17   18 1    
    35   17   86 1    
    36   17   87 1    
    37   18   19 1    
    38   18   37 1    
    39   18   88 1    
    40   19   20 am   BACKBONE|DICT|INTERRES
    41   19   89 1    
    42   20   21 2    
    43   20   22 1    
    44   22   23 1    
    45   22   24 1    
    46   22   90 1    
    47   23   91 1    
    48   23   92 1    
    49   23   93 1    
    50   24   25 am   BACKBONE|DICT|INTERRES
    51   24   94 1    
    52   25   26 2    
    53   25   27 1    
    54   27   28 1    
    55   27   29 1    
    56   27   95 1    
    57   28   96 1    
    58   28   97 1    
    59   28   98 1    
    60   29   30 am   BACKBONE|DICT|INTERRES
    61   29   99 1    
    62   30   31 2    
    63   30   32 1    
    64   32   33 1    
    65   32   34 1    
    66   32  100 1    
    67   33  101 1    
    68   33  102 1    
    69   33  103 1    
    70   34   35 am   BACKBONE|DICT|INTERRES
    71   34  104 1    
    72   35   36 2    
    73   37   38 2    
    74   37   39 am   BACKBONE|DICT|INTERRES
    75   39   40 1    
    76   39  105 1    
    77   40   41 1    
    78   40   42 1    
    79   40  106 1    
    80   41  107 1    
    81   41  108 1    
    82   41  109 1    
    83   42   43 2    
    84   42   44 am   BACKBONE|DICT|INTERRES
    85   44   45 1    
    86   44  110 1    
    87   45   46 1    
    88   45   47 1    
    89   45  111 1    
    90   46  112 1    
    91   46  113 1    
    92   46  114 1    
    93   47   48 2    
    94   47   49 am   BACKBONE|DICT|INTERRES
    95   49   50 1    
    96   49  115 1    
    97   50   51 1    
    98   50   52 1    
    99   50  116 1    
   100   51  117 1    
   101   51  118 1    
   102   51  119 1    
   103   52   53 2    
   104   52   54 am   BACKBONE|DICT|INTERRES
   105   54   55 1    
   106   54  120 1    
   107   55   56 1    
   108   55   57 1    
   109   55  121 1    
   110   56  122 1    
   111   56  123 1    
   112   56  124 1    
   113   57   58 2    
   114   57   59 am   BACKBONE|DICT|INTERRES
   115   59   60 1    
   116   59  125 1    
   117   60   61 1    
   118   60   62 1    
   119   60  126 1    
   120   61  127 1    
   121   61  128 1    
   122   61  129 1    
   123   62   63 2    
   124   62   64 am   BACKBONE|DICT|INTERRES
   125   64   65 1    
   126   64  130 1    
   127   65   66 1    
   128   65   69 1    
   129   65  131 1    
   130   66   67 am   BACKBONE|DICT|INTERRES
   131   66   68 2    
   132   67  132 1    
   133   67  133 1    
   134   69   70 1    
   135   69  134 1    
   136   69  135 1    
   137   70   71 1    
   138   71  136 1    
   139   71  137 1    
@<TRIPOS>SUBSTRUCTURE
     1 UNK         1 GROUP             0       ****    0 ROOT    
