@<TRIPOS>MOLECULE
3R137
137   139    1
SMALL
USER_CHARGES


@<TRIPOS>ATOM
      1 CA         25.8517   -5.2789   -3.3472 C.3       0 UNK        -0.2020 
      2 C          25.9872   -4.0506   -2.4612 C.2       0 UNK         0.4855 
      3 O          25.0086   -3.6312   -1.8428 O.2       0 UNK        -0.5197 
      4 N          27.1891   -3.4625   -2.3927 N.am      1 UNK        -0.4892 
      5 CA         27.4660   -2.2419   -1.6298 C.3       1 UNK         0.0835 
      6 C6         28.9826   -1.9467   -1.5319 C.3       12 UNK        -0.0855 
      7 S7         29.8021   -2.8907   -0.1948 S.3       12 UNK        -0.2931 
      8 C8         30.2219   -4.5043   -0.9433 C.3       12 UNK         0.0378 
      9 C9         30.8727   -4.3742   -2.3123 C.ar      12 UNK        -0.0802 
     10 C10        32.0716   -3.6707   -2.4686 C.ar      12 UNK        -0.0944 
     11 C11        32.6105   -3.4690   -3.7424 C.ar      12 UNK        -0.0787 
     12 C12        31.9516   -3.9866   -4.8611 C.ar      12 UNK        -0.0862 
     13 C13        30.7562   -4.6949   -4.7136 C.ar      12 UNK        -0.0733 
     14 C14        30.2394   -4.9136   -3.4347 C.ar      12 UNK        -0.0832 
     15 C15        29.9796   -5.1543   -5.9390 C.3       12 UNK         0.0240 
     16 S16        28.3522   -4.3348   -6.0428 S.3       12 UNK        -0.2522 
     17 C17        28.8047   -2.5710   -5.8837 C.3       12 UNK        -0.0967 
     18 CA         27.9054   -1.6532   -6.7390 C.3       5 UNK         0.0660 
     19 N          26.4870   -1.8157   -6.3990 N.am      5 UNK        -0.4015 
     20 C          25.4665   -1.2522   -7.0555 C.2       4 UNK         0.4946 
     21 O          25.6019   -0.4013   -7.9327 O.2       4 UNK        -0.5353 
     22 CA         24.0619   -1.7349   -6.6915 C.3       4 UNK         0.0277 
     23 CB         23.8658   -3.2132   -7.0847 C.3       4 UNK        -0.1981 
     24 N          23.7577   -1.5254   -5.2744 N.am      4 UNK        -0.4209 
     25 C          22.5072   -1.4385   -4.7963 C.2       3 UNK         0.4942 
     26 O          21.5025   -1.5069   -5.5065 O.2       3 UNK        -0.5208 
     27 CA         22.3135   -1.2660   -3.2795 C.3       3 UNK         0.0250 
     28 CB         21.8433   -2.5870   -2.6483 C.3       3 UNK        -0.1990 
     29 N          23.5024   -0.7872   -2.5714 N.am      3 UNK        -0.4232 
     30 C          23.9354    0.4821   -2.5993 C.2       2 UNK         0.4993 
     31 O          23.4016    1.3686   -3.2662 O.2       2 UNK        -0.5286 
     32 CA         25.1578    0.8395   -1.7334 C.3       2 UNK         0.0209 
     33 CB         24.7102    1.5549   -0.4481 C.3       2 UNK        -0.1931 
     34 N          26.0022   -0.3019   -1.3732 N.am      2 UNK        -0.4546 
     35 C          26.6977   -1.0509   -2.2377 C.2       1 UNK         0.5154 
     36 O          26.7260   -0.8491   -3.4564 O.2       1 UNK        -0.5181 
     37 C          28.3928   -0.1913   -6.6785 C.2       5 UNK         0.5014 
     38 O          29.1543    0.2286   -7.5526 O.2       5 UNK        -0.5248 
     39 N          27.9264    0.5680   -5.6772 N.am      6 UNK        -0.4434 
     40 CA         28.2144    1.9985   -5.5406 C.3       6 UNK         0.0363 
     41 CB         27.7485    2.4953   -4.1655 C.3       6 UNK        -0.1936 
     42 C          27.5719    2.8427   -6.6551 C.2       6 UNK         0.5081 
     43 O          28.2130    3.7640   -7.1589 O.2       6 UNK        -0.5248 
     44 N          26.3333    2.5009   -7.0400 N.am      7 UNK        -0.4718 
     45 CA         25.5893    3.1533   -8.1235 C.3       7 UNK         0.0273 
     46 CB         24.1045    2.7635   -8.0407 C.3       7 UNK        -0.1935 
     47 C          26.1695    2.8248   -9.5094 C.2       7 UNK         0.5018 
     48 O          26.1972    3.6956  -10.3792 O.2       7 UNK        -0.5186 
     49 N          26.6653    1.5904   -9.6698 N.am      8 UNK        -0.4240 
     50 CA         27.4152    1.1175  -10.8363 C.3       8 UNK         0.0235 
     51 CB         27.4682   -0.4191  -10.7991 C.3       8 UNK        -0.2000 
     52 C          28.8396    1.7015  -10.9389 C.2       8 UNK         0.4941 
     53 O          29.4774    1.5198  -11.9768 O.2       8 UNK        -0.5273 
     54 N          29.3103    2.3757   -9.8776 N.am      9 UNK        -0.4262 
     55 CA         30.6320    2.9885   -9.7138 C.3       9 UNK         0.0264 
     56 CB         30.8355    4.1486  -10.7122 C.3       9 UNK        -0.1955 
     57 C          31.7720    1.9530   -9.7371 C.2       9 UNK         0.5031 
     58 O          32.7923    2.1689  -10.3963 O.2       9 UNK        -0.5390 
     59 N          31.5751    0.8447   -9.0109 N.am      10 UNK        -0.4204 
     60 CA         32.5735   -0.2032   -8.7926 C.3       10 UNK         0.0237 
     61 CB         31.8365   -1.5008   -8.4070 C.3       10 UNK        -0.1985 
     62 C          33.6103    0.2019   -7.7220 C.2       10 UNK         0.4970 
     63 O          33.6312    1.3488   -7.2674 O.2       10 UNK        -0.4914 
     64 N          34.4343   -0.7746   -7.3222 N.am      11 UNK        -0.4285 
     65 CA         35.4923   -0.6734   -6.3019 C.3       11 UNK         0.1007 
     66 C          36.7392    0.1205   -6.7961 C.2       11 UNK         0.5703 
     67 N          37.6679    0.4603   -5.9115 N.am      11 UNK        -0.7361 
     68 O          36.9031    0.3951   -7.9841 O.2       11 UNK        -0.4986 
     69 C69        34.9906   -0.2193   -4.8915 C.3       12 UNK        -0.0947 
     70 S70        33.3957   -0.9323   -4.3655 S.3       12 UNK        -0.2240 
     71 C71        33.8630   -2.6306   -3.9271 C.3       12 UNK         0.0194 
     72 H72        25.4022   -6.0976   -2.7852 H         1 UNK         0.0906 
     73 H73        25.2087   -5.0576   -4.1990 H         1 UNK         0.0906 
     74 H74        26.8148   -5.6201   -3.7254 H         1 UNK         0.0906 
     75 H75        27.9538   -3.8126   -2.9488 H         1 UNK         0.3140 
     76 H76        27.0824   -2.3997   -0.6189 H         1 UNK         0.1085 
     77 H77        29.1516   -0.8953   -1.2892 H         1 UNK         0.0836 
     78 H78        29.4837   -2.0984   -2.4885 H         1 UNK         0.0836 
     79 H79        30.8996   -5.0379   -0.2755 H         1 UNK         0.0731 
     80 H80        29.3134   -5.1061   -0.9992 H         1 UNK         0.0731 
     81 H81        32.5574   -3.2411   -1.6030 H         1 UNK         0.1312 
     82 H82        32.3498   -3.7981   -5.8488 H         1 UNK         0.1406 
     83 H83        29.3155   -5.4641   -3.3250 H         1 UNK         0.1631 
     84 H84        29.8359   -6.2347   -5.8954 H         1 UNK         0.0717 
     85 H85        30.5370   -4.9510   -6.8548 H         1 UNK         0.0717 
     86 H86        28.7518   -2.2923   -4.8301 H         1 UNK         0.0934 
     87 H87        29.8472   -2.4506   -6.1762 H         1 UNK         0.0934 
     88 H88        28.0108   -1.9684   -7.7790 H         1 UNK         0.0739 
     89 H89        26.2919   -2.5053   -5.6898 H         1 UNK         0.3093 
     90 H90        23.3698   -1.1333   -7.2855 H         1 UNK         0.0818 
     91 H91        22.8237   -3.5165   -6.9836 H         1 UNK         0.0819 
     92 H92        24.1476   -3.3820   -8.1249 H         1 UNK         0.0819 
     93 H93        24.4672   -3.8832   -6.4699 H         1 UNK         0.0819 
     94 H94        24.5364   -1.3983   -4.6410 H         1 UNK         0.3041 
     95 H95        21.5193   -0.5292   -3.1394 H         1 UNK         0.0784 
     96 H96        20.8997   -2.9136   -3.0876 H         1 UNK         0.0793 
     97 H97        22.5651   -3.3891   -2.8034 H         1 UNK         0.0793 
     98 H98        21.6805   -2.4823   -1.5755 H         1 UNK         0.0793 
     99 H99        24.0081   -1.4687   -2.0192 H         1 UNK         0.3024 
    100 H100       25.7665    1.5348   -2.3087 H         1 UNK         0.1171 
    101 H101       24.1047    2.4325   -0.6796 H         1 UNK         0.0786 
    102 H102       25.5652    1.9002    0.1335 H         1 UNK         0.0786 
    103 H103       24.1096    0.9041    0.1886 H         1 UNK         0.0786 
    104 H104       26.0283   -0.5430   -0.3924 H         1 UNK         0.2977 
    105 H105       27.3518    0.1297   -4.9602 H         1 UNK         0.3127 
    106 H106       29.2975    2.1274   -5.6011 H         1 UNK         0.0770 
    107 H107       26.6610    2.5043   -4.0984 H         1 UNK         0.0814 
    108 H108       28.0900    3.5159   -3.9877 H         1 UNK         0.0814 
    109 H109       28.1399    1.8754   -3.3586 H         1 UNK         0.0814 
    110 H110       25.9023    1.6914   -6.6166 H         1 UNK         0.2983 
    111 H111       25.6653    4.2341   -7.9834 H         1 UNK         0.0947 
    112 H112       23.5262    3.2723   -8.8132 H         1 UNK         0.0806 
    113 H113       23.6741    3.0418   -7.0786 H         1 UNK         0.0806 
    114 H114       23.9556    1.6920   -8.1773 H         1 UNK         0.0806 
    115 H115       26.5066    0.9142   -8.9253 H         1 UNK         0.3000 
    116 H116       26.8731    1.4223  -11.7339 H         1 UNK         0.0850 
    117 H117       27.9549   -0.8163  -11.6908 H         1 UNK         0.0810 
    118 H118       26.4682   -0.8514  -10.7549 H         1 UNK         0.0810 
    119 H119       28.0273   -0.7790   -9.9352 H         1 UNK         0.0810 
    120 H120       28.7063    2.4425   -9.0685 H         1 UNK         0.3040 
    121 H121       30.6399    3.4185   -8.7110 H         1 UNK         0.0766 
    122 H122       31.7617    4.6848  -10.5022 H         1 UNK         0.0812 
    123 H123       30.0219    4.8713  -10.6502 H         1 UNK         0.0812 
    124 H124       30.8929    3.7942  -11.7417 H         1 UNK         0.0812 
    125 H125       30.7020    0.7445   -8.4956 H         1 UNK         0.3205 
    126 H126       33.1080   -0.3736   -9.7294 H         1 UNK         0.0754 
    127 H127       31.4447   -1.4380   -7.3925 H         1 UNK         0.0769 
    128 H128       32.4954   -2.3681   -8.4516 H         1 UNK         0.0769 
    129 H129       31.0003   -1.7020   -9.0773 H         1 UNK         0.0769 
    130 H130       34.3648   -1.6723   -7.7764 H         1 UNK         0.2981 
    131 H131       35.8535   -1.6961   -6.1946 H         1 UNK         0.0541 
    132 H132       37.5694    0.2317   -4.9352 H         1 UNK         0.3459 
    133 H133       38.4845    0.9586   -6.2290 H         1 UNK         0.3459 
    134 H134       34.8738    0.8654   -4.8689 H         1 UNK         0.0612 
    135 H135       35.7323   -0.4572   -4.1277 H         1 UNK         0.0612 
    136 H136       34.4659   -2.6221   -3.0180 H         1 UNK         0.0624 
    137 H137       34.4819   -3.0623   -4.7143 H         1 UNK         0.0624 
@<TRIPOS>BOND
     1    1    2 1    
     2    1   72 1    
     3    1   73 1    
     4    1   74 1    
     5    2    3 2    
     6    2    4 am   BACKBONE|DICT|INTERRES
     7    4    5 1    
     8    4   75 1    
     9    5    6 1    
    10    5   35 1    
    11    5   76 1    
    12    6    7 1    
    13    6   77 1    
    14    6   78 1    
    15    7    8 1    
    16    8    9 1    
    17    8   79 1    
    18    8   80 1    
    19    9   10 ar   
    20    9   14 ar   
    21   10   11 ar   
    22   10   81 1    
    23   11   12 ar   
    24   11   71 1    
    25   12   13 ar   
    26   12   82 1    
    27   13   14 ar   
    28   13   15 1    
    29   14   83 1    
    30   15   16 1    
    31   15   84 1    
    32   15   85 1    
    33   16   17 1    
    34   17   18 1    
    35   17   86 1    
    36   17   87 1    
    37   18   19 1    
    38   18   37 1    
    39   18   88 1    
    40   19   20 am   BACKBONE|DICT|INTERRES
    41   19   89 1    
    42   20   21 2    
    43   20   22 1    
    44   22   23 1    
    45   22   24 1    
    46   22   90 1    
    47   23   91 1    
    48   23   92 1    
    49   23   93 1    
    50   24   25 am   BACKBONE|DICT|INTERRES
    51   24   94 1    
    52   25   26 2    
    53   25   27 1    
    54   27   28 1    
    55   27   29 1    
    56   27   95 1    
    57   28   96 1    
    58   28   97 1    
    59   28   98 1    
    60   29   30 am   BACKBONE|DICT|INTERRES
    61   29   99 1    
    62   30   31 2    
    63   30   32 1    
    64   32   33 1    
    65   32   34 1    
    66   32  100 1    
    67   33  101 1    
    68   33  102 1    
    69   33  103 1    
    70   34   35 am   BACKBONE|DICT|INTERRES
    71   34  104 1    
    72   35   36 2    
    73   37   38 2    
    74   37   39 am   BACKBONE|DICT|INTERRES
    75   39   40 1    
    76   39  105 1    
    77   40   41 1    
    78   40   42 1    
    79   40  106 1    
    80   41  107 1    
    81   41  108 1    
    82   41  109 1    
    83   42   43 2    
    84   42   44 am   BACKBONE|DICT|INTERRES
    85   44   45 1    
    86   44  110 1    
    87   45   46 1    
    88   45   47 1    
    89   45  111 1    
    90   46  112 1    
    91   46  113 1    
    92   46  114 1    
    93   47   48 2    
    94   47   49 am   BACKBONE|DICT|INTERRES
    95   49   50 1    
    96   49  115 1    
    97   50   51 1    
    98   50   52 1    
    99   50  116 1    
   100   51  117 1    
   101   51  118 1    
   102   51  119 1    
   103   52   53 2    
   104   52   54 am   BACKBONE|DICT|INTERRES
   105   54   55 1    
   106   54  120 1    
   107   55   56 1    
   108   55   57 1    
   109   55  121 1    
   110   56  122 1    
   111   56  123 1    
   112   56  124 1    
   113   57   58 2    
   114   57   59 am   BACKBONE|DICT|INTERRES
   115   59   60 1    
   116   59  125 1    
   117   60   61 1    
   118   60   62 1    
   119   60  126 1    
   120   61  127 1    
   121   61  128 1    
   122   61  129 1    
   123   62   63 2    
   124   62   64 am   BACKBONE|DICT|INTERRES
   125   64   65 1    
   126   64  130 1    
   127   65   66 1    
   128   65   69 1    
   129   65  131 1    
   130   66   67 am   BACKBONE|DICT|INTERRES
   131   66   68 2    
   132   67  132 1    
   133   67  133 1    
   134   69   70 1    
   135   69  134 1    
   136   69  135 1    
   137   70   71 1    
   138   71  136 1    
   139   71  137 1    
@<TRIPOS>SUBSTRUCTURE
     1 UNK         1 GROUP             0       ****    0 ROOT    
