@<TRIPOS>MOLECULE
3R137
137   139    1
SMALL
USER_CHARGES


@<TRIPOS>ATOM
      1 CA         29.2272   -5.7505   -0.0218 C.3       0 UNK        -0.2020 
      2 C          28.0408   -4.9908    0.5523 C.2       0 UNK         0.4855 
      3 O          27.1413   -5.6011    1.1297 O.2       0 UNK        -0.5197 
      4 N          28.0301   -3.6609    0.3935 N.am      1 UNK        -0.4892 
      5 CA         26.9655   -2.7605    0.8581 C.3       1 UNK         0.0835 
      6 C6         27.4713   -1.2954    0.9671 C.3       12 UNK        -0.0855 
      7 S7         27.8784   -0.5086   -0.6345 S.3       12 UNK        -0.2931 
      8 C8         29.6700   -0.8008   -0.7671 C.3       12 UNK         0.0378 
      9 C9         30.0751   -1.1521   -2.1927 C.ar      12 UNK        -0.0802 
     10 C10        30.9576   -0.3316   -2.9021 C.ar      12 UNK        -0.0944 
     11 C11        31.3682   -0.6823   -4.1922 C.ar      12 UNK        -0.0787 
     12 C12        30.8850   -1.8568   -4.7775 C.ar      12 UNK        -0.0862 
     13 C13        30.0050   -2.6856   -4.0779 C.ar      12 UNK        -0.0733 
     14 C14        29.5986   -2.3234   -2.7913 C.ar      12 UNK        -0.0832 
     15 C15        29.5277   -3.9982   -4.6797 C.3       12 UNK         0.0240 
     16 S16        27.8739   -3.8499   -5.4196 S.3       12 UNK        -0.2522 
     17 C17        28.2498   -3.3240   -7.1268 C.3       12 UNK        -0.0967 
     18 CA         27.5242   -2.0330   -7.5799 C.3       5 UNK         0.0660 
     19 N          26.0910   -2.0467   -7.2654 N.am      5 UNK        -0.4015 
     20 C          25.1819   -1.2592   -7.8542 C.2       4 UNK         0.4946 
     21 O          25.4559   -0.4254   -8.7167 O.2       4 UNK        -0.5353 
     22 CA         23.7254   -1.4088   -7.3868 C.3       4 UNK         0.0277 
     23 CB         23.1312   -2.7488   -7.8520 C.3       4 UNK        -0.1981 
     24 N          23.5547   -1.2658   -5.9383 N.am      4 UNK        -0.4209 
     25 C          23.8639   -0.1661   -5.2356 C.2       3 UNK         0.4942 
     26 O          24.3921    0.8313   -5.7211 O.2       3 UNK        -0.5208 
     27 CA         23.5286   -0.1653   -3.7356 C.3       3 UNK         0.0250 
     28 CB         22.1315    0.4311   -3.5007 C.3       3 UNK        -0.1990 
     29 N          23.6122   -1.4807   -3.0960 N.am      3 UNK        -0.4232 
     30 C          24.7453   -2.1819   -2.9683 C.2       2 UNK         0.4993 
     31 O          25.8216   -1.8433   -3.4648 O.2       2 UNK        -0.5286 
     32 CA         24.6623   -3.4803   -2.1537 C.3       2 UNK         0.0209 
     33 CB         24.8026   -4.7138   -3.0600 C.3       2 UNK        -0.1931 
     34 N          25.7297   -3.4834   -1.1573 N.am      2 UNK        -0.4546 
     35 C          25.6624   -2.8616    0.0286 C.2       1 UNK         0.5154 
     36 O          24.6264   -2.3623    0.4725 O.2       1 UNK        -0.5181 
     37 C          28.2290   -0.7482   -7.1017 C.2       5 UNK         0.5014 
     38 O          29.1783   -0.3065   -7.7557 O.2       5 UNK        -0.5248 
     39 N          27.7318   -0.1484   -6.0105 N.am      6 UNK        -0.4434 
     40 CA         28.1673    1.1578   -5.5217 C.3       6 UNK         0.0363 
     41 CB         27.6138    1.3944   -4.1089 C.3       6 UNK        -0.1936 
     42 C          27.7642    2.2910   -6.4807 C.2       6 UNK         0.5081 
     43 O          28.6169    3.0997   -6.8449 O.2       6 UNK        -0.5248 
     44 N          26.4924    2.3108   -6.9086 N.am      7 UNK        -0.4718 
     45 CA         25.9427    3.2805   -7.8636 C.3       7 UNK         0.0273 
     46 CB         24.4135    3.1410   -7.9268 C.3       7 UNK        -0.1935 
     47 C          26.5514    3.1580   -9.2693 C.2       7 UNK         0.5018 
     48 O          26.7977    4.1801   -9.9105 O.2       7 UNK        -0.5186 
     49 N          26.8177    1.9195   -9.7087 N.am      8 UNK        -0.4240 
     50 CA         27.5356    1.6120  -10.9500 C.3       8 UNK         0.0235 
     51 CB         27.3405    0.1259  -11.2921 C.3       8 UNK        -0.2000 
     52 C          29.0382    1.9496  -10.8955 C.2       8 UNK         0.4941 
     53 O          29.6769    1.9669  -11.9485 O.2       8 UNK        -0.5273 
     54 N          29.5712    2.1961   -9.6879 N.am      9 UNK        -0.4262 
     55 CA         30.9696    2.4899   -9.3675 C.3       9 UNK         0.0264 
     56 CB         31.3973    3.8522   -9.9534 C.3       9 UNK        -0.1955 
     57 C          31.9114    1.3377   -9.7574 C.2       9 UNK         0.5031 
     58 O          32.9669    1.5744  -10.3499 O.2       9 UNK        -0.5390 
     59 N          31.5281    0.1043   -9.3902 N.am      10 UNK        -0.4204 
     60 CA         32.2803   -1.1289   -9.6673 C.3       10 UNK         0.0237 
     61 CB         31.4498   -2.3377   -9.2108 C.3       10 UNK        -0.1985 
     62 C          33.6844   -1.1709   -9.0308 C.2       10 UNK         0.4970 
     63 O          34.5404   -1.9225   -9.4985 O.2       10 UNK        -0.4914 
     64 N          33.8919   -0.3513   -7.9947 N.am      11 UNK        -0.4285 
     65 CA         35.1809   -0.0865   -7.3450 C.3       11 UNK         0.1007 
     66 C          36.1697    0.7541   -8.2070 C.2       11 UNK         0.5703 
     67 N          35.7488    1.3808   -9.3011 N.am      11 UNK        -0.7361 
     68 O          37.3506    0.8326   -7.8766 O.2       11 UNK        -0.4986 
     69 C69        34.9742    0.5633   -5.9509 C.3       12 UNK        -0.0947 
     70 S70        34.0371   -0.5094   -4.8133 S.3       12 UNK        -0.2240 
     71 C71        32.3601    0.1857   -4.9463 C.3       12 UNK         0.0194 
     72 H72        29.7408   -6.2963    0.7692 H         1 UNK         0.0906 
     73 H73        28.8870   -6.4702   -0.7660 H         1 UNK         0.0906 
     74 H74        29.9485   -5.0864   -0.4979 H         1 UNK         0.0906 
     75 H75        28.8046   -3.2085   -0.0671 H         1 UNK         0.3140 
     76 H76        26.6949   -3.0798    1.8674 H         1 UNK         0.1085 
     77 H77        26.7104   -0.6802    1.4514 H         1 UNK         0.0836 
     78 H78        28.3377   -1.2457    1.6286 H         1 UNK         0.0836 
     79 H79        30.1947    0.0903   -0.4190 H         1 UNK         0.0731 
     80 H80        29.9794   -1.6112   -0.1069 H         1 UNK         0.0731 
     81 H81        31.3410    0.5702   -2.4448 H         1 UNK         0.1312 
     82 H82        31.2150   -2.1350   -5.7680 H         1 UNK         0.1406 
     83 H83        28.9092   -2.9602   -2.2573 H         1 UNK         0.1631 
     84 H84        29.4854   -4.7568   -3.8966 H         1 UNK         0.0717 
     85 H85        30.2402   -4.3729   -5.4160 H         1 UNK         0.0717 
     86 H86        29.3271   -3.2309   -7.2643 H         1 UNK         0.0934 
     87 H87        27.9514   -4.1441   -7.7817 H         1 UNK         0.0934 
     88 H88        27.6007   -2.0120   -8.6689 H         1 UNK         0.0739 
     89 H89        25.8032   -2.6809   -6.5335 H         1 UNK         0.3093 
     90 H90        23.1537   -0.6071   -7.8595 H         1 UNK         0.0818 
     91 H91        22.0634   -2.8033   -7.6390 H         1 UNK         0.0819 
     92 H92        23.2498   -2.8747   -8.9293 H         1 UNK         0.0819 
     93 H93        23.6128   -3.6000   -7.3693 H         1 UNK         0.0819 
     94 H94        23.1267   -2.0372   -5.4481 H         1 UNK         0.3041 
     95 H95        24.2589    0.4821   -3.2450 H         1 UNK         0.0784 
     96 H96        21.3476   -0.1879   -3.9390 H         1 UNK         0.0793 
     97 H97        21.9197    0.5406   -2.4369 H         1 UNK         0.0793 
     98 H98        22.0512    1.4232   -3.9479 H         1 UNK         0.0793 
     99 H99        22.7680   -1.8266   -2.6623 H         1 UNK         0.3024 
    100 H100       23.6956   -3.5339   -1.6474 H         1 UNK         0.1171 
    101 H101       24.0267   -4.7274   -3.8265 H         1 UNK         0.0786 
    102 H102       24.7095   -5.6368   -2.4874 H         1 UNK         0.0786 
    103 H103       25.7656   -4.7343   -3.5695 H         1 UNK         0.0786 
    104 H104       26.6294   -3.8222   -1.4615 H         1 UNK         0.2977 
    105 H105       26.9741   -0.5952   -5.5114 H         1 UNK         0.3127 
    106 H106       29.2575    1.1440   -5.4573 H         1 UNK         0.0770 
    107 H107       26.5243    1.4211   -4.0953 H         1 UNK         0.0814 
    108 H108       27.9712    2.3412   -3.7029 H         1 UNK         0.0814 
    109 H109       27.9345    0.6065   -3.4277 H         1 UNK         0.0814 
    110 H110       25.8335    1.6293   -6.5340 H         1 UNK         0.2983 
    111 H111       26.1783    4.2800   -7.4918 H         1 UNK         0.0947 
    112 H112       23.9821    3.8591   -8.6253 H         1 UNK         0.0806 
    113 H113       23.9592    3.3230   -6.9527 H         1 UNK         0.0806 
    114 H114       24.1141    2.1441   -8.2534 H         1 UNK         0.0806 
    115 H115       26.4954    1.1261   -9.1582 H         1 UNK         0.3000 
    116 H116       27.0968    2.2090  -11.7522 H         1 UNK         0.0850 
    117 H117       27.8144   -0.1235  -12.2424 H         1 UNK         0.0810 
    118 H118       26.2838   -0.1269  -11.3813 H         1 UNK         0.0810 
    119 H119       27.7781   -0.5198  -10.5306 H         1 UNK         0.0810 
    120 H120       28.9539    2.1511   -8.8864 H         1 UNK         0.3040 
    121 H121       31.0207    2.5701   -8.2806 H         1 UNK         0.0766 
    122 H122       32.3973    4.1257   -9.6144 H         1 UNK         0.0812 
    123 H123       30.7203    4.6471   -9.6403 H         1 UNK         0.0812 
    124 H124       31.4175    3.8377  -11.0435 H         1 UNK         0.0812 
    125 H125       30.6504   -0.0011   -8.8813 H         1 UNK         0.3205 
    126 H126       32.4141   -1.1921  -10.7491 H         1 UNK         0.0754 
    127 H127       31.9451   -3.2744   -9.4703 H         1 UNK         0.0769 
    128 H128       30.4667   -2.3481   -9.6821 H         1 UNK         0.0769 
    129 H129       31.3070   -2.3321   -8.1310 H         1 UNK         0.0769 
    130 H130       33.1244    0.2277   -7.6961 H         1 UNK         0.2981 
    131 H131       35.6686   -1.0511   -7.1920 H         1 UNK         0.0541 
    132 H132       36.4102    1.9138   -9.8424 H         1 UNK         0.3459 
    133 H133       34.7791    1.3376   -9.5983 H         1 UNK         0.3459 
    134 H134       34.4748    1.5298   -6.0414 H         1 UNK         0.0612 
    135 H135       35.9372    0.7632   -5.4773 H         1 UNK         0.0612 
    136 H136       32.3569    1.2045   -4.5556 H         1 UNK         0.0624 
    137 H137       32.0591    0.2518   -5.9921 H         1 UNK         0.0624 
@<TRIPOS>BOND
     1    1    2 1    
     2    1   72 1    
     3    1   73 1    
     4    1   74 1    
     5    2    3 2    
     6    2    4 am   BACKBONE|DICT|INTERRES
     7    4    5 1    
     8    4   75 1    
     9    5    6 1    
    10    5   35 1    
    11    5   76 1    
    12    6    7 1    
    13    6   77 1    
    14    6   78 1    
    15    7    8 1    
    16    8    9 1    
    17    8   79 1    
    18    8   80 1    
    19    9   10 ar   
    20    9   14 ar   
    21   10   11 ar   
    22   10   81 1    
    23   11   12 ar   
    24   11   71 1    
    25   12   13 ar   
    26   12   82 1    
    27   13   14 ar   
    28   13   15 1    
    29   14   83 1    
    30   15   16 1    
    31   15   84 1    
    32   15   85 1    
    33   16   17 1    
    34   17   18 1    
    35   17   86 1    
    36   17   87 1    
    37   18   19 1    
    38   18   37 1    
    39   18   88 1    
    40   19   20 am   BACKBONE|DICT|INTERRES
    41   19   89 1    
    42   20   21 2    
    43   20   22 1    
    44   22   23 1    
    45   22   24 1    
    46   22   90 1    
    47   23   91 1    
    48   23   92 1    
    49   23   93 1    
    50   24   25 am   BACKBONE|DICT|INTERRES
    51   24   94 1    
    52   25   26 2    
    53   25   27 1    
    54   27   28 1    
    55   27   29 1    
    56   27   95 1    
    57   28   96 1    
    58   28   97 1    
    59   28   98 1    
    60   29   30 am   BACKBONE|DICT|INTERRES
    61   29   99 1    
    62   30   31 2    
    63   30   32 1    
    64   32   33 1    
    65   32   34 1    
    66   32  100 1    
    67   33  101 1    
    68   33  102 1    
    69   33  103 1    
    70   34   35 am   BACKBONE|DICT|INTERRES
    71   34  104 1    
    72   35   36 2    
    73   37   38 2    
    74   37   39 am   BACKBONE|DICT|INTERRES
    75   39   40 1    
    76   39  105 1    
    77   40   41 1    
    78   40   42 1    
    79   40  106 1    
    80   41  107 1    
    81   41  108 1    
    82   41  109 1    
    83   42   43 2    
    84   42   44 am   BACKBONE|DICT|INTERRES
    85   44   45 1    
    86   44  110 1    
    87   45   46 1    
    88   45   47 1    
    89   45  111 1    
    90   46  112 1    
    91   46  113 1    
    92   46  114 1    
    93   47   48 2    
    94   47   49 am   BACKBONE|DICT|INTERRES
    95   49   50 1    
    96   49  115 1    
    97   50   51 1    
    98   50   52 1    
    99   50  116 1    
   100   51  117 1    
   101   51  118 1    
   102   51  119 1    
   103   52   53 2    
   104   52   54 am   BACKBONE|DICT|INTERRES
   105   54   55 1    
   106   54  120 1    
   107   55   56 1    
   108   55   57 1    
   109   55  121 1    
   110   56  122 1    
   111   56  123 1    
   112   56  124 1    
   113   57   58 2    
   114   57   59 am   BACKBONE|DICT|INTERRES
   115   59   60 1    
   116   59  125 1    
   117   60   61 1    
   118   60   62 1    
   119   60  126 1    
   120   61  127 1    
   121   61  128 1    
   122   61  129 1    
   123   62   63 2    
   124   62   64 am   BACKBONE|DICT|INTERRES
   125   64   65 1    
   126   64  130 1    
   127   65   66 1    
   128   65   69 1    
   129   65  131 1    
   130   66   67 am   BACKBONE|DICT|INTERRES
   131   66   68 2    
   132   67  132 1    
   133   67  133 1    
   134   69   70 1    
   135   69  134 1    
   136   69  135 1    
   137   70   71 1    
   138   71  136 1    
   139   71  137 1    
@<TRIPOS>SUBSTRUCTURE
     1 UNK         1 GROUP             0       ****    0 ROOT    
