@<TRIPOS>MOLECULE
3R137
137   139    1
SMALL
USER_CHARGES


@<TRIPOS>ATOM
      1 CA         25.9657   -5.9307    0.5582 C.3       0 UNK        -0.2020 
      2 C          26.8358   -5.8633   -0.6949 C.2       0 UNK         0.4855 
      3 O          26.8437   -6.8110   -1.4788 O.2       0 UNK        -0.5197 
      4 N          27.5843   -4.7765   -0.9326 N.am      1 UNK        -0.4892 
      5 CA         27.6666   -3.5575   -0.1109 C.3       1 UNK         0.0835 
      6 C6         28.9981   -2.8070   -0.3496 C.3       12 UNK        -0.0855 
      7 S7         30.4683   -3.7497    0.1983 S.3       12 UNK        -0.2931 
      8 C8         31.0078   -4.6594   -1.2958 C.3       12 UNK         0.0378 
      9 C9         31.0259   -3.8143   -2.5652 C.ar      12 UNK        -0.0802 
     10 C10        31.6251   -2.5499   -2.5759 C.ar      12 UNK        -0.0944 
     11 C11        31.5711   -1.7415   -3.7149 C.ar      12 UNK        -0.0787 
     12 C12        30.9372   -2.2285   -4.8643 C.ar      12 UNK        -0.0862 
     13 C13        30.3733   -3.5090   -4.8838 C.ar      12 UNK        -0.0733 
     14 C14        30.4205   -4.2957   -3.7298 C.ar      12 UNK        -0.0832 
     15 C15        29.7512   -4.0528   -6.1658 C.3       12 UNK         0.0240 
     16 S16        28.0261   -4.6233   -5.9809 S.3       12 UNK        -0.2522 
     17 C17        27.1439   -3.1466   -5.3770 C.3       12 UNK        -0.0967 
     18 CA         26.7708   -2.1400   -6.5013 C.3       5 UNK         0.0660 
     19 N          25.4776   -1.4904   -6.2638 N.am      5 UNK        -0.4015 
     20 C          24.8289   -0.7168   -7.1491 C.2       4 UNK         0.4946 
     21 O          25.2161   -0.5134   -8.2985 O.2       4 UNK        -0.5353 
     22 CA         23.5543   -0.0087   -6.6584 C.3       4 UNK         0.0277 
     23 CB         22.3343   -0.9323   -6.8015 C.3       4 UNK        -0.1981 
     24 N          23.6604    0.4552   -5.2739 N.am      4 UNK        -0.4209 
     25 C          24.5315    1.3806   -4.8442 C.2       3 UNK         0.4942 
     26 O          25.2809    2.0120   -5.5876 O.2       3 UNK        -0.5208 
     27 CA         24.6237    1.5904   -3.3222 C.3       3 UNK         0.0250 
     28 CB         23.6562    2.6951   -2.8703 C.3       3 UNK        -0.1990 
     29 N          24.3707    0.3657   -2.5522 N.am      3 UNK        -0.4232 
     30 C          25.1123   -0.7479   -2.6320 C.2       2 UNK         0.4993 
     31 O          26.1031   -0.8609   -3.3602 O.2       2 UNK        -0.5286 
     32 CA         24.6037   -1.9641   -1.8450 C.3       2 UNK         0.0209 
     33 CB         23.6355   -2.7894   -2.7098 C.3       2 UNK        -0.1931 
     34 N          25.7146   -2.8203   -1.4314 N.am      2 UNK        -0.4546 
     35 C          26.4779   -2.6003   -0.3523 C.2       1 UNK         0.5154 
     36 O          26.2696   -1.6873    0.4487 O.2       1 UNK        -0.5181 
     37 C          27.8691   -1.0795   -6.6771 C.2       5 UNK         0.5014 
     38 O          28.6033   -1.1155   -7.6657 O.2       5 UNK        -0.5248 
     39 N          27.9271   -0.1355   -5.7249 N.am      6 UNK        -0.4434 
     40 CA         28.8621    0.9893   -5.7191 C.3       6 UNK         0.0363 
     41 CB         28.6713    1.8186   -4.4406 C.3       6 UNK        -0.1936 
     42 C          28.7651    1.8652   -6.9780 C.2       6 UNK         0.5081 
     43 O          29.8020    2.2374   -7.5299 O.2       6 UNK        -0.5248 
     44 N          27.5341    2.1388   -7.4280 N.am      7 UNK        -0.4718 
     45 CA         27.2446    2.8343   -8.6802 C.3       7 UNK         0.0273 
     46 CB         25.7525    3.2006   -8.7359 C.3       7 UNK        -0.1935 
     47 C          27.6613    2.0218   -9.9174 C.2       7 UNK         0.5018 
     48 O          28.4011    2.5438  -10.7519 O.2       7 UNK        -0.5186 
     49 N          27.1951    0.7664  -10.0137 N.am      8 UNK        -0.4240 
     50 CA         27.4228   -0.1199  -11.1617 C.3       8 UNK         0.0235 
     51 CB         26.5961   -1.4062  -11.0046 C.3       8 UNK        -0.2000 
     52 C          28.9001   -0.4647  -11.4027 C.2       8 UNK         0.4941 
     53 O          29.3319   -0.4870  -12.5561 O.2       8 UNK        -0.5273 
     54 N          29.6497   -0.7153  -10.3216 N.am      9 UNK        -0.4262 
     55 CA         31.0789   -1.0309  -10.3746 C.3       9 UNK         0.0264 
     56 CB         31.4600   -1.8195   -9.1103 C.3       9 UNK        -0.1955 
     57 C          31.9824    0.2067  -10.5257 C.2       9 UNK         0.5031 
     58 O          33.1822    0.0296  -10.7422 O.2       9 UNK        -0.5390 
     59 N          31.4212    1.4185  -10.3668 N.am      10 UNK        -0.4204 
     60 CA         32.1246    2.7042  -10.2268 C.3       10 UNK         0.0237 
     61 CB         32.8105    3.1144  -11.5473 C.3       10 UNK        -0.1985 
     62 C          33.0821    2.6974   -9.0154 C.2       10 UNK         0.4970 
     63 O          34.2110    3.1848   -9.0980 O.2       10 UNK        -0.4914 
     64 N          32.5978    2.1002   -7.9242 N.am      11 UNK        -0.4285 
     65 CA         33.2990    1.8556   -6.6612 C.3       11 UNK         0.1007 
     66 C          32.8984    2.8927   -5.5707 C.2       11 UNK         0.5703 
     67 N          31.7413    3.5392   -5.6666 N.am      11 UNK        -0.7361 
     68 O          33.6667    3.1498   -4.6475 O.2       11 UNK        -0.4986 
     69 C69        33.0546    0.3741   -6.2543 C.3       12 UNK        -0.0947 
     70 S70        33.6995   -0.1734   -4.6360 S.3       12 UNK        -0.2240 
     71 C71        32.1625   -0.3345   -3.6684 C.3       12 UNK         0.0194 
     72 H72        25.4033   -6.8652    0.5808 H         1 UNK         0.0906 
     73 H73        26.5788   -5.8939    1.4592 H         1 UNK         0.0906 
     74 H74        25.2461   -5.1122    0.5853 H         1 UNK         0.0906 
     75 H75        28.1600   -4.7678   -1.7626 H         1 UNK         0.3140 
     76 H76        27.6334   -3.8360    0.9452 H         1 UNK         0.1085 
     77 H77        29.0867   -2.5049   -1.3946 H         1 UNK         0.0836 
     78 H78        29.0112   -1.8739    0.2195 H         1 UNK         0.0836 
     79 H79        32.0103   -5.0527   -1.1224 H         1 UNK         0.0731 
     80 H80        30.3591   -5.5277   -1.4201 H         1 UNK         0.0731 
     81 H81        32.1008   -2.1805   -1.6776 H         1 UNK         0.1312 
     82 H82        30.8866   -1.6203   -5.7537 H         1 UNK         0.1406 
     83 H83        29.9773   -5.2825   -3.7431 H         1 UNK         0.1631 
     84 H84        29.7955   -3.3147   -6.9648 H         1 UNK         0.0717 
     85 H85        30.3540   -4.8945   -6.5087 H         1 UNK         0.0717 
     86 H86        26.2351   -3.5257   -4.9081 H         1 UNK         0.0934 
     87 H87        27.7054   -2.6843   -4.5622 H         1 UNK         0.0934 
     88 H88        26.6777   -2.6809   -7.4458 H         1 UNK         0.0739 
     89 H89        25.1325   -1.5280   -5.3159 H         1 UNK         0.3093 
     90 H90        23.3983    0.8668   -7.2925 H         1 UNK         0.0818 
     91 H91        21.4117   -0.4146   -6.5385 H         1 UNK         0.0819 
     92 H92        22.2270   -1.2772   -7.8310 H         1 UNK         0.0819 
     93 H93        22.4161   -1.8169   -6.1688 H         1 UNK         0.0819 
     94 H94        23.0647    0.0075   -4.5933 H         1 UNK         0.3041 
     95 H95        25.6415    1.9153   -3.0980 H         1 UNK         0.0784 
     96 H96        23.8423    3.6219   -3.4152 H         1 UNK         0.0793 
     97 H97        22.6153    2.4194   -3.0430 H         1 UNK         0.0793 
     98 H98        23.7744    2.9170   -1.8096 H         1 UNK         0.0793 
     99 H99        23.5669    0.3766   -1.9401 H         1 UNK         0.3024 
    100 H100       24.0717   -1.6156   -0.9562 H         1 UNK         0.1171 
    101 H101       23.2534   -3.6503   -2.1605 H         1 UNK         0.0786 
    102 H102       22.7724   -2.1950   -3.0128 H         1 UNK         0.0786 
    103 H103       24.1125   -3.1599   -3.6178 H         1 UNK         0.0786 
    104 H104       25.9757   -3.5694   -2.0557 H         1 UNK         0.2977 
    105 H105       27.2861   -0.2050   -4.9404 H         1 UNK         0.3127 
    106 H106       29.8635    0.5655   -5.7006 H         1 UNK         0.0770 
    107 H107       27.6906    2.2923   -4.4085 H         1 UNK         0.0814 
    108 H108       29.4153    2.6123   -4.3746 H         1 UNK         0.0814 
    109 H109       28.7763    1.2023   -3.5474 H         1 UNK         0.0814 
    110 H110       26.7364    1.8521   -6.8664 H         1 UNK         0.2983 
    111 H111       27.8206    3.7624   -8.6863 H         1 UNK         0.0947 
    112 H112       25.5140    3.7322   -9.6581 H         1 UNK         0.0806 
    113 H113       25.4747    3.8500   -7.9054 H         1 UNK         0.0806 
    114 H114       25.1153    2.3166   -8.6922 H         1 UNK         0.0806 
    115 H115       26.5905    0.4037   -9.2795 H         1 UNK         0.3000 
    116 H116       27.0640    0.4042  -12.0503 H         1 UNK         0.0850 
    117 H117       26.7500   -2.0788  -11.8497 H         1 UNK         0.0810 
    118 H118       25.5293   -1.1875  -10.9562 H         1 UNK         0.0810 
    119 H119       26.8677   -1.9500  -10.0984 H         1 UNK         0.0810 
    120 H120       29.2102   -0.7220   -9.4014 H         1 UNK         0.3040 
    121 H121       31.2660   -1.6728  -11.2382 H         1 UNK         0.0766 
    122 H122       30.8911   -2.7461   -9.0398 H         1 UNK         0.0812 
    123 H123       31.2749   -1.2404   -8.2059 H         1 UNK         0.0812 
    124 H124       32.5170   -2.0895   -9.1149 H         1 UNK         0.0812 
    125 H125       30.4193    1.4570  -10.2233 H         1 UNK         0.3205 
    126 H126       31.3575    3.4484  -10.0065 H         1 UNK         0.0754 
    127 H127       33.2248    4.1207  -11.4748 H         1 UNK         0.0769 
    128 H128       32.1029    3.1144  -12.3765 H         1 UNK         0.0769 
    129 H129       33.6306    2.4440  -11.8060 H         1 UNK         0.0769 
    130 H130       31.6134    1.8497   -7.9284 H         1 UNK         0.2981 
    131 H131       34.3719    1.9780   -6.8194 H         1 UNK         0.0541 
    132 H132       31.0973    3.3307   -6.4193 H         1 UNK         0.3459 
    133 H133       31.5060    4.2312   -4.9737 H         1 UNK         0.3459 
    134 H134       31.9885    0.1682   -6.2949 H         1 UNK         0.0612 
    135 H135       33.4994   -0.2774   -7.0081 H         1 UNK         0.0612 
    136 H136       31.4258    0.3955   -4.0019 H         1 UNK         0.0624 
    137 H137       32.3922   -0.0618   -2.6374 H         1 UNK         0.0624 
@<TRIPOS>BOND
     1    1    2 1    
     2    1   72 1    
     3    1   73 1    
     4    1   74 1    
     5    2    3 2    
     6    2    4 am   BACKBONE|DICT|INTERRES
     7    4    5 1    
     8    4   75 1    
     9    5    6 1    
    10    5   35 1    
    11    5   76 1    
    12    6    7 1    
    13    6   77 1    
    14    6   78 1    
    15    7    8 1    
    16    8    9 1    
    17    8   79 1    
    18    8   80 1    
    19    9   10 ar   
    20    9   14 ar   
    21   10   11 ar   
    22   10   81 1    
    23   11   12 ar   
    24   11   71 1    
    25   12   13 ar   
    26   12   82 1    
    27   13   14 ar   
    28   13   15 1    
    29   14   83 1    
    30   15   16 1    
    31   15   84 1    
    32   15   85 1    
    33   16   17 1    
    34   17   18 1    
    35   17   86 1    
    36   17   87 1    
    37   18   19 1    
    38   18   37 1    
    39   18   88 1    
    40   19   20 am   BACKBONE|DICT|INTERRES
    41   19   89 1    
    42   20   21 2    
    43   20   22 1    
    44   22   23 1    
    45   22   24 1    
    46   22   90 1    
    47   23   91 1    
    48   23   92 1    
    49   23   93 1    
    50   24   25 am   BACKBONE|DICT|INTERRES
    51   24   94 1    
    52   25   26 2    
    53   25   27 1    
    54   27   28 1    
    55   27   29 1    
    56   27   95 1    
    57   28   96 1    
    58   28   97 1    
    59   28   98 1    
    60   29   30 am   BACKBONE|DICT|INTERRES
    61   29   99 1    
    62   30   31 2    
    63   30   32 1    
    64   32   33 1    
    65   32   34 1    
    66   32  100 1    
    67   33  101 1    
    68   33  102 1    
    69   33  103 1    
    70   34   35 am   BACKBONE|DICT|INTERRES
    71   34  104 1    
    72   35   36 2    
    73   37   38 2    
    74   37   39 am   BACKBONE|DICT|INTERRES
    75   39   40 1    
    76   39  105 1    
    77   40   41 1    
    78   40   42 1    
    79   40  106 1    
    80   41  107 1    
    81   41  108 1    
    82   41  109 1    
    83   42   43 2    
    84   42   44 am   BACKBONE|DICT|INTERRES
    85   44   45 1    
    86   44  110 1    
    87   45   46 1    
    88   45   47 1    
    89   45  111 1    
    90   46  112 1    
    91   46  113 1    
    92   46  114 1    
    93   47   48 2    
    94   47   49 am   BACKBONE|DICT|INTERRES
    95   49   50 1    
    96   49  115 1    
    97   50   51 1    
    98   50   52 1    
    99   50  116 1    
   100   51  117 1    
   101   51  118 1    
   102   51  119 1    
   103   52   53 2    
   104   52   54 am   BACKBONE|DICT|INTERRES
   105   54   55 1    
   106   54  120 1    
   107   55   56 1    
   108   55   57 1    
   109   55  121 1    
   110   56  122 1    
   111   56  123 1    
   112   56  124 1    
   113   57   58 2    
   114   57   59 am   BACKBONE|DICT|INTERRES
   115   59   60 1    
   116   59  125 1    
   117   60   61 1    
   118   60   62 1    
   119   60  126 1    
   120   61  127 1    
   121   61  128 1    
   122   61  129 1    
   123   62   63 2    
   124   62   64 am   BACKBONE|DICT|INTERRES
   125   64   65 1    
   126   64  130 1    
   127   65   66 1    
   128   65   69 1    
   129   65  131 1    
   130   66   67 am   BACKBONE|DICT|INTERRES
   131   66   68 2    
   132   67  132 1    
   133   67  133 1    
   134   69   70 1    
   135   69  134 1    
   136   69  135 1    
   137   70   71 1    
   138   71  136 1    
   139   71  137 1    
@<TRIPOS>SUBSTRUCTURE
     1 UNK         1 GROUP             0       ****    0 ROOT    
