@<TRIPOS>MOLECULE
3R137
137   139    1
SMALL
USER_CHARGES


@<TRIPOS>ATOM
      1 CA         28.7295    0.3214   -0.1667 C.3       0 UNK        -0.2020 
      2 C          28.2307   -0.9538   -0.8279 C.2       0 UNK         0.4855 
      3 O          27.5864   -0.8870   -1.8759 O.2       0 UNK        -0.5197 
      4 N          28.5208   -2.1161   -0.2270 N.am      1 UNK        -0.4892 
      5 CA         28.1268   -3.4369   -0.7274 C.3       1 UNK         0.0835 
      6 C6         28.7441   -4.6030    0.0865 C.3       12 UNK        -0.0855 
      7 S7         30.5611   -4.5245    0.2425 S.3       12 UNK        -0.2931 
      8 C8         31.1154   -5.5392   -1.1659 C.3       12 UNK         0.0378 
      9 C9         31.1285   -4.7311   -2.4542 C.ar      12 UNK        -0.0802 
     10 C10        32.1670   -3.8268   -2.6924 C.ar      12 UNK        -0.0944 
     11 C11        32.1847   -3.0564   -3.8572 C.ar      12 UNK        -0.0787 
     12 C12        31.1505   -3.1939   -4.7897 C.ar      12 UNK        -0.0862 
     13 C13        30.1087   -4.1008   -4.5661 C.ar      12 UNK        -0.0733 
     14 C14        30.1103   -4.8762   -3.4017 C.ar      12 UNK        -0.0832 
     15 C15        28.9829   -4.2567   -5.5795 C.3       12 UNK         0.0240 
     16 S16        27.5015   -3.3162   -5.0890 S.3       12 UNK        -0.2522 
     17 C17        27.9185   -1.6278   -5.6431 C.3       12 UNK        -0.0967 
     18 CA         26.9645   -1.1036   -6.7482 C.3       5 UNK         0.0660 
     19 N          25.5679   -1.1137   -6.3010 N.am      5 UNK        -0.4015 
     20 C          24.4959   -0.6405   -6.9555 C.2       4 UNK         0.4946 
     21 O          24.5272   -0.2190   -8.1114 O.2       4 UNK        -0.5353 
     22 CA         23.1785   -0.5543   -6.1604 C.3       4 UNK         0.0277 
     23 CB         22.2482   -1.7175   -6.5383 C.3       4 UNK        -0.1981 
     24 N          23.3648   -0.5416   -4.7042 N.am      4 UNK        -0.4209 
     25 C          24.0847    0.3435   -3.9997 C.2       3 UNK         0.4942 
     26 O          24.6275    1.3302   -4.4983 O.2       3 UNK        -0.5208 
     27 CA         24.3284    0.0195   -2.5162 C.3       3 UNK         0.0250 
     28 CB         23.1542    0.4784   -1.6303 C.3       3 UNK        -0.1990 
     29 N          24.6951   -1.3881   -2.2820 N.am      3 UNK        -0.4232 
     30 C          23.9297   -2.4883   -2.3900 C.2       2 UNK         0.4993 
     31 O          22.7357   -2.4506   -2.6902 O.2       2 UNK        -0.5286 
     32 CA         24.5969   -3.8663   -2.2100 C.3       2 UNK         0.0209 
     33 CB         24.3522   -4.7546   -3.4436 C.3       2 UNK        -0.1931 
     34 N          26.0397   -3.7868   -1.9683 N.am      2 UNK        -0.4546 
     35 C          26.5920   -3.5696   -0.7688 C.2       1 UNK         0.5154 
     36 O          25.9428   -3.4537    0.2733 O.2       1 UNK        -0.5181 
     37 C          27.4330    0.2881   -7.2269 C.2       5 UNK         0.5014 
     38 O          28.2356    0.3633   -8.1585 O.2       5 UNK        -0.5248 
     39 N          26.9051    1.3671   -6.6248 N.am      6 UNK        -0.4434 
     40 CA         27.1852    2.7575   -6.9959 C.3       6 UNK         0.0363 
     41 CB         26.4557    3.7005   -6.0278 C.3       6 UNK        -0.1936 
     42 C          26.8306    3.1072   -8.4537 C.2       6 UNK         0.5081 
     43 O          27.4892    3.9706   -9.0329 O.2       6 UNK        -0.5248 
     44 N          25.8533    2.4057   -9.0502 N.am      7 UNK        -0.4718 
     45 CA         25.4890    2.5434  -10.4662 C.3       7 UNK         0.0273 
     46 CB         24.1557    1.8250  -10.7266 C.3       7 UNK        -0.1935 
     47 C          26.5769    2.0280  -11.4287 C.2       7 UNK         0.5018 
     48 O          26.6166    2.4656  -12.5787 O.2       7 UNK        -0.5186 
     49 N          27.4503    1.1377  -10.9384 N.am      8 UNK        -0.4240 
     50 CA         28.6337    0.6310  -11.6352 C.3       8 UNK         0.0235 
     51 CB         28.7126   -0.8916  -11.4180 C.3       8 UNK        -0.2000 
     52 C          29.9219    1.3320  -11.1566 C.2       8 UNK         0.4941 
     53 O          31.0113    0.8371  -11.4471 O.2       8 UNK        -0.5273 
     54 N          29.7847    2.4495  -10.4217 N.am      9 UNK        -0.4262 
     55 CA         30.8447    3.2291   -9.7680 C.3       9 UNK         0.0264 
     56 CB         31.8270    3.8267  -10.7986 C.3       9 UNK        -0.1955 
     57 C          31.5555    2.4675   -8.6305 C.2       9 UNK         0.5031 
     58 O          32.7162    2.7620   -8.3308 O.2       9 UNK        -0.5390 
     59 N          30.8406    1.5218   -7.9998 N.am      10 UNK        -0.4204 
     60 CA         31.2717    0.6721   -6.8896 C.3       10 UNK         0.0237 
     61 CB         31.3845    1.5002   -5.5887 C.3       10 UNK        -0.1985 
     62 C          32.5257   -0.1377   -7.2591 C.2       10 UNK         0.4970 
     63 O          32.4273   -1.0474   -8.0833 O.2       10 UNK        -0.4914 
     64 N          33.6600    0.2105   -6.6484 N.am      11 UNK        -0.4285 
     65 CA         34.9863   -0.3689   -6.8947 C.3       11 UNK         0.1007 
     66 C          36.0052    0.7087   -7.3704 C.2       11 UNK         0.5703 
     67 N          35.5735    1.8903   -7.8024 N.am      11 UNK        -0.7361 
     68 O          37.2106    0.4697   -7.3675 O.2       11 UNK        -0.4986 
     69 C69        35.4826   -1.1776   -5.6624 C.3       12 UNK        -0.0947 
     70 S70        34.4739   -2.6685   -5.3567 S.3       12 UNK        -0.2240 
     71 C71        33.3102   -2.0624   -4.0972 C.3       12 UNK         0.0194 
     72 H72        27.8879    0.9660    0.0850 H         1 UNK         0.0906 
     73 H73        29.3830    0.8645   -0.8488 H         1 UNK         0.0906 
     74 H74        29.2867    0.1165    0.7472 H         1 UNK         0.0906 
     75 H75        29.0504   -2.1202    0.6332 H         1 UNK         0.3140 
     76 H76        28.5008   -3.4998   -1.7496 H         1 UNK         0.1085 
     77 H77        28.3359   -4.6122    1.0994 H         1 UNK         0.0836 
     78 H78        28.4659   -5.5632   -0.3521 H         1 UNK         0.0836 
     79 H79        30.4906   -6.4283   -1.2630 H         1 UNK         0.0731 
     80 H80        32.1240   -5.9011   -0.9602 H         1 UNK         0.0731 
     81 H81        32.9563   -3.7162   -1.9611 H         1 UNK         0.1312 
     82 H82        31.1654   -2.5994   -5.6928 H         1 UNK         0.1406 
     83 H83        29.3075   -5.5797   -3.2263 H         1 UNK         0.1631 
     84 H84        28.7143   -5.3109   -5.6620 H         1 UNK         0.0717 
     85 H85        29.3071   -3.9506   -6.5755 H         1 UNK         0.0717 
     86 H86        27.8976   -0.9733   -4.7685 H         1 UNK         0.0934 
     87 H87        28.9487   -1.6188   -5.9983 H         1 UNK         0.0934 
     88 H88        27.0273   -1.7736   -7.6080 H         1 UNK         0.0739 
     89 H89        25.4223   -1.4591   -5.3649 H         1 UNK         0.3093 
     90 H90        22.6941    0.3840   -6.4381 H         1 UNK         0.0818 
     91 H91        22.0708   -1.7425   -7.6145 H         1 UNK         0.0819 
     92 H92        22.6717   -2.6818   -6.2539 H         1 UNK         0.0819 
     93 H93        21.2764   -1.6220   -6.0535 H         1 UNK         0.0819 
     94 H94        22.9554   -1.3112   -4.1789 H         1 UNK         0.3041 
     95 H95        25.2037    0.5973   -2.2144 H         1 UNK         0.0784 
     96 H96        22.9924    1.5524   -1.7308 H         1 UNK         0.0793 
     97 H97        22.2180   -0.0129   -1.8961 H         1 UNK         0.0793 
     98 H98        23.3515    0.2775   -0.5773 H         1 UNK         0.0793 
     99 H99        25.6821   -1.5207   -2.0781 H         1 UNK         0.3024 
    100 H100       24.1161   -4.3406   -1.3511 H         1 UNK         0.1171 
    101 H101       24.8188   -5.7331   -3.3284 H         1 UNK         0.0786 
    102 H102       23.2860   -4.9254   -3.5986 H         1 UNK         0.0786 
    103 H103       24.7423   -4.3013   -4.3552 H         1 UNK         0.0786 
    104 H104       26.6336   -3.8282   -2.7868 H         1 UNK         0.2977 
    105 H105       26.2230    1.2328   -5.8850 H         1 UNK         0.3127 
    106 H106       28.2595    2.9142   -6.8783 H         1 UNK         0.0770 
    107 H107       25.3734    3.5764   -6.0846 H         1 UNK         0.0814 
    108 H108       26.6779    4.7440   -6.2555 H         1 UNK         0.0814 
    109 H109       26.7584    3.5226   -4.9957 H         1 UNK         0.0814 
    110 H110       25.3829    1.6704   -8.5318 H         1 UNK         0.2983 
    111 H111       25.3488    3.6066  -10.6743 H         1 UNK         0.0947 
    112 H112       24.2428    0.7476  -10.5816 H         1 UNK         0.0806 
    113 H113       23.8199    1.9876  -11.7516 H         1 UNK         0.0806 
    114 H114       23.3695    2.1906  -10.0659 H         1 UNK         0.0806 
    115 H115       27.3625    0.8564   -9.9674 H         1 UNK         0.3000 
    116 H116       28.5473    0.8172  -12.7076 H         1 UNK         0.0850 
    117 H117       29.5369   -1.3278  -11.9838 H         1 UNK         0.0810 
    118 H118       27.7992   -1.3871  -11.7474 H         1 UNK         0.0810 
    119 H119       28.8703   -1.1415  -10.3680 H         1 UNK         0.0810 
    120 H120       28.8451    2.7841  -10.2405 H         1 UNK         0.3040 
    121 H121       30.3374    4.0655   -9.2849 H         1 UNK         0.0766 
    122 H122       32.4439    3.0584  -11.2653 H         1 UNK         0.0812 
    123 H123       32.5040    4.5383  -10.3246 H         1 UNK         0.0812 
    124 H124       31.2988    4.3609  -11.5882 H         1 UNK         0.0812 
    125 H125       29.9108    1.3048   -8.3485 H         1 UNK         0.3205 
    126 H126       30.4827   -0.0624   -6.7382 H         1 UNK         0.0754 
    127 H127       31.6569    0.8738   -4.7391 H         1 UNK         0.0769 
    128 H128       30.4280    1.9624   -5.3433 H         1 UNK         0.0769 
    129 H129       32.1208    2.3009   -5.6654 H         1 UNK         0.0769 
    130 H130       33.6442    1.0050   -6.0259 H         1 UNK         0.2981 
    131 H131       34.9271   -1.0613   -7.7361 H         1 UNK         0.0541 
    132 H132       34.5822    2.0957   -7.8806 H         1 UNK         0.3459 
    133 H133       36.2475    2.5724   -8.1110 H         1 UNK         0.3459 
    134 H134       35.5039   -0.5524   -4.7682 H         1 UNK         0.0612 
    135 H135       36.5065   -1.5225   -5.8158 H         1 UNK         0.0612 
    136 H136       32.8824   -1.1115   -4.4081 H         1 UNK         0.0624 
    137 H137       33.8572   -1.8644   -3.1741 H         1 UNK         0.0624 
@<TRIPOS>BOND
     1    1    2 1    
     2    1   72 1    
     3    1   73 1    
     4    1   74 1    
     5    2    3 2    
     6    2    4 am   BACKBONE|DICT|INTERRES
     7    4    5 1    
     8    4   75 1    
     9    5    6 1    
    10    5   35 1    
    11    5   76 1    
    12    6    7 1    
    13    6   77 1    
    14    6   78 1    
    15    7    8 1    
    16    8    9 1    
    17    8   79 1    
    18    8   80 1    
    19    9   10 ar   
    20    9   14 ar   
    21   10   11 ar   
    22   10   81 1    
    23   11   12 ar   
    24   11   71 1    
    25   12   13 ar   
    26   12   82 1    
    27   13   14 ar   
    28   13   15 1    
    29   14   83 1    
    30   15   16 1    
    31   15   84 1    
    32   15   85 1    
    33   16   17 1    
    34   17   18 1    
    35   17   86 1    
    36   17   87 1    
    37   18   19 1    
    38   18   37 1    
    39   18   88 1    
    40   19   20 am   BACKBONE|DICT|INTERRES
    41   19   89 1    
    42   20   21 2    
    43   20   22 1    
    44   22   23 1    
    45   22   24 1    
    46   22   90 1    
    47   23   91 1    
    48   23   92 1    
    49   23   93 1    
    50   24   25 am   BACKBONE|DICT|INTERRES
    51   24   94 1    
    52   25   26 2    
    53   25   27 1    
    54   27   28 1    
    55   27   29 1    
    56   27   95 1    
    57   28   96 1    
    58   28   97 1    
    59   28   98 1    
    60   29   30 am   BACKBONE|DICT|INTERRES
    61   29   99 1    
    62   30   31 2    
    63   30   32 1    
    64   32   33 1    
    65   32   34 1    
    66   32  100 1    
    67   33  101 1    
    68   33  102 1    
    69   33  103 1    
    70   34   35 am   BACKBONE|DICT|INTERRES
    71   34  104 1    
    72   35   36 2    
    73   37   38 2    
    74   37   39 am   BACKBONE|DICT|INTERRES
    75   39   40 1    
    76   39  105 1    
    77   40   41 1    
    78   40   42 1    
    79   40  106 1    
    80   41  107 1    
    81   41  108 1    
    82   41  109 1    
    83   42   43 2    
    84   42   44 am   BACKBONE|DICT|INTERRES
    85   44   45 1    
    86   44  110 1    
    87   45   46 1    
    88   45   47 1    
    89   45  111 1    
    90   46  112 1    
    91   46  113 1    
    92   46  114 1    
    93   47   48 2    
    94   47   49 am   BACKBONE|DICT|INTERRES
    95   49   50 1    
    96   49  115 1    
    97   50   51 1    
    98   50   52 1    
    99   50  116 1    
   100   51  117 1    
   101   51  118 1    
   102   51  119 1    
   103   52   53 2    
   104   52   54 am   BACKBONE|DICT|INTERRES
   105   54   55 1    
   106   54  120 1    
   107   55   56 1    
   108   55   57 1    
   109   55  121 1    
   110   56  122 1    
   111   56  123 1    
   112   56  124 1    
   113   57   58 2    
   114   57   59 am   BACKBONE|DICT|INTERRES
   115   59   60 1    
   116   59  125 1    
   117   60   61 1    
   118   60   62 1    
   119   60  126 1    
   120   61  127 1    
   121   61  128 1    
   122   61  129 1    
   123   62   63 2    
   124   62   64 am   BACKBONE|DICT|INTERRES
   125   64   65 1    
   126   64  130 1    
   127   65   66 1    
   128   65   69 1    
   129   65  131 1    
   130   66   67 am   BACKBONE|DICT|INTERRES
   131   66   68 2    
   132   67  132 1    
   133   67  133 1    
   134   69   70 1    
   135   69  134 1    
   136   69  135 1    
   137   70   71 1    
   138   71  136 1    
   139   71  137 1    
@<TRIPOS>SUBSTRUCTURE
     1 UNK         1 GROUP             0       ****    0 ROOT    
