@<TRIPOS>MOLECULE
3R137
137   139    1
SMALL
USER_CHARGES


@<TRIPOS>ATOM
      1 CA         23.4845   -4.9977    0.1163 C.3       0 UNK        -0.2020 
      2 C          24.3968   -3.7801    0.1268 C.2       0 UNK         0.4855 
      3 O          24.0275   -2.7437    0.6790 O.2       0 UNK        -0.5197 
      4 N          25.5880   -3.8996   -0.4721 N.am      1 UNK        -0.4892 
      5 CA         26.5517   -2.8070   -0.6301 C.3       1 UNK         0.0835 
      6 C6         27.9771   -3.3601   -0.8681 C.3       12 UNK        -0.0855 
      7 S7         29.2755   -2.1642   -0.4111 S.3       12 UNK        -0.2931 
      8 C8         30.7739   -3.0491   -0.9483 C.3       12 UNK         0.0378 
      9 C9         31.0141   -2.8946   -2.4432 C.ar      12 UNK        -0.0802 
     10 C10        31.7662   -1.8167   -2.9227 C.ar      12 UNK        -0.0944 
     11 C11        31.9953   -1.6680   -4.2934 C.ar      12 UNK        -0.0787 
     12 C12        31.4643   -2.6029   -5.1845 C.ar      12 UNK        -0.0862 
     13 C13        30.7049   -3.6789   -4.7202 C.ar      12 UNK        -0.0733 
     14 C14        30.4932   -3.8277   -3.3465 C.ar      12 UNK        -0.0832 
     15 C15        30.1147   -4.6736   -5.7088 C.3       12 UNK         0.0240 
     16 S16        28.8702   -3.8963   -6.7875 S.3       12 UNK        -0.2522 
     17 C17        27.5709   -3.4587   -5.5845 C.3       12 UNK        -0.0967 
     18 CA         26.2429   -3.0783   -6.2847 C.3       5 UNK         0.0660 
     19 N          25.1074   -3.2535   -5.3838 N.am      5 UNK        -0.4015 
     20 C          23.8853   -3.6669   -5.7419 C.2       4 UNK         0.4946 
     21 O          23.6131   -4.1609   -6.8370 O.2       4 UNK        -0.5353 
     22 CA         22.7632   -3.4143   -4.7224 C.3       4 UNK         0.0277 
     23 CB         22.8856   -4.3293   -3.4924 C.3       4 UNK        -0.1981 
     24 N          22.7899   -2.0048   -4.3221 N.am      4 UNK        -0.4209 
     25 C          22.2264   -1.0217   -5.0405 C.2       3 UNK         0.4942 
     26 O          21.4253   -1.2237   -5.9543 O.2       3 UNK        -0.5208 
     27 CA         22.6583    0.4277   -4.7580 C.3       3 UNK         0.0250 
     28 CB         21.5743    1.2247   -4.0033 C.3       3 UNK        -0.1990 
     29 N          23.9943    0.5300   -4.1539 N.am      3 UNK        -0.4232 
     30 C          24.3540    0.4148   -2.8696 C.2       2 UNK         0.4993 
     31 O          23.5691    0.2728   -1.9306 O.2       2 UNK        -0.5286 
     32 CA         25.8678    0.4445   -2.5917 C.3       2 UNK         0.0209 
     33 CB         26.3016    1.8337   -2.0961 C.3       2 UNK        -0.1931 
     34 N          26.2665   -0.5663   -1.6090 N.am      2 UNK        -0.4546 
     35 C          26.1094   -1.8843   -1.7828 C.2       1 UNK         0.5154 
     36 O          25.6597   -2.3821   -2.8190 O.2       1 UNK        -0.5181 
     37 C          26.2531   -1.6165   -6.7799 C.2       5 UNK         0.5014 
     38 O          25.7251   -0.7269   -6.1048 O.2       5 UNK        -0.5248 
     39 N          26.8767   -1.3844   -7.9422 N.am      6 UNK        -0.4434 
     40 CA         26.9096   -0.0908   -8.6367 C.3       6 UNK         0.0363 
     41 CB         27.2401   -0.3258  -10.1205 C.3       6 UNK        -0.1936 
     42 C          27.8438    0.9670   -8.0095 C.2       6 UNK         0.5081 
     43 O          27.9285    2.0740   -8.5448 O.2       6 UNK        -0.5248 
     44 N          28.5179    0.6274   -6.8990 N.am      7 UNK        -0.4718 
     45 CA         29.3445    1.4988   -6.0541 C.3       7 UNK         0.0273 
     46 CB         28.4456    2.4715   -5.2592 C.3       7 UNK        -0.1935 
     47 C          30.4582    2.1927   -6.8577 C.2       7 UNK         0.5018 
     48 O          31.3499    1.5032   -7.3515 O.2       7 UNK        -0.5186 
     49 N          30.3796    3.5195   -7.0255 N.am      8 UNK        -0.4240 
     50 CA         31.3299    4.3306   -7.7945 C.3       8 UNK         0.0235 
     51 CB         30.9131    5.8081   -7.7196 C.3       8 UNK        -0.2000 
     52 C          31.5020    3.8942   -9.2623 C.2       8 UNK         0.4941 
     53 O          32.5866    4.0783   -9.8136 O.2       8 UNK        -0.5273 
     54 N          30.4610    3.2965   -9.8598 N.am      9 UNK        -0.4262 
     55 CA         30.5160    2.7252  -11.2073 C.3       9 UNK         0.0264 
     56 CB         29.1147    2.7794  -11.8352 C.3       9 UNK        -0.1955 
     57 C          31.0885    1.2937  -11.2400 C.2       9 UNK         0.5031 
     58 O          31.4257    0.8224  -12.3271 O.2       9 UNK        -0.5390 
     59 N          31.1930    0.6263  -10.0810 N.am      10 UNK        -0.4204 
     60 CA         31.7800   -0.7074   -9.9388 C.3       10 UNK         0.0237 
     61 CB         30.9807   -1.5319   -8.9131 C.3       10 UNK        -0.1985 
     62 C          33.2587   -0.6132   -9.5366 C.2       10 UNK         0.4970 
     63 O          34.1042   -1.1956  -10.2168 O.2       10 UNK        -0.4914 
     64 N          33.5435    0.1135   -8.4477 N.am      11 UNK        -0.4285 
     65 CA         34.9029    0.3184   -7.9183 C.3       11 UNK         0.1007 
     66 C          35.7023    1.4456   -8.6322 C.2       11 UNK         0.5703 
     67 N          35.0893    2.2968   -9.4449 N.am      11 UNK        -0.7361 
     68 O          36.9148    1.5399   -8.4558 O.2       11 UNK        -0.4986 
     69 C69        34.9033    0.5167   -6.3783 C.3       12 UNK        -0.0947 
     70 S70        34.3989   -0.9931   -5.4863 S.3       12 UNK        -0.2240 
     71 C71        32.7845   -0.4854   -4.8275 C.3       12 UNK         0.0194 
     72 H72        22.5062   -4.7305   -0.2822 H         1 UNK         0.0906 
     73 H73        23.8882   -5.8056   -0.4937 H         1 UNK         0.0906 
     74 H74        23.3476   -5.3723    1.1303 H         1 UNK         0.0906 
     75 H75        25.8249   -4.7633   -0.9390 H         1 UNK         0.3140 
     76 H76        26.5515   -2.2311    0.2987 H         1 UNK         0.1085 
     77 H77        28.1393   -4.2496   -0.2566 H         1 UNK         0.0836 
     78 H78        28.1028   -3.6790   -1.9036 H         1 UNK         0.0836 
     79 H79        30.7018   -4.1036   -0.6769 H         1 UNK         0.0731 
     80 H80        31.6289   -2.6547   -0.3970 H         1 UNK         0.0731 
     81 H81        32.1674   -1.0914   -2.2279 H         1 UNK         0.1312 
     82 H82        31.6381   -2.4896   -6.2448 H         1 UNK         0.1406 
     83 H83        29.9181   -4.6670   -2.9807 H         1 UNK         0.1631 
     84 H84        29.6654   -5.5238   -5.1932 H         1 UNK         0.0717 
     85 H85        30.9157   -5.0781   -6.3290 H         1 UNK         0.0717 
     86 H86        27.4142   -4.3302   -4.9462 H         1 UNK         0.0934 
     87 H87        27.9241   -2.6651   -4.9217 H         1 UNK         0.0934 
     88 H88        26.1011   -3.7310   -7.1491 H         1 UNK         0.0739 
     89 H89        25.2364   -2.8577   -4.4525 H         1 UNK         0.3093 
     90 H90        21.8091   -3.6372   -5.2053 H         1 UNK         0.0818 
     91 H91        22.0792   -4.1438   -2.7831 H         1 UNK         0.0819 
     92 H92        22.8250   -5.3785   -3.7843 H         1 UNK         0.0819 
     93 H93        23.8298   -4.1952   -2.9671 H         1 UNK         0.0819 
     94 H94        23.4378   -1.7504   -3.5882 H         1 UNK         0.3041 
     95 H95        22.7680    0.8967   -5.7372 H         1 UNK         0.0784 
     96 H96        20.6600    1.2839   -4.5950 H         1 UNK         0.0793 
     97 H97        21.3078    0.7589   -3.0544 H         1 UNK         0.0793 
     98 H98        21.8973    2.2460   -3.8016 H         1 UNK         0.0793 
     99 H99        24.7423    0.5148   -4.8427 H         1 UNK         0.3024 
    100 H100       26.3991    0.2206   -3.5198 H         1 UNK         0.1171 
    101 H101       27.3813    1.8864   -1.9542 H         1 UNK         0.0786 
    102 H102       26.0317    2.6076   -2.8161 H         1 UNK         0.0786 
    103 H103       25.8241    2.0903   -1.1495 H         1 UNK         0.0786 
    104 H104       26.6384   -0.2280   -0.7335 H         1 UNK         0.2977 
    105 H105       27.3310   -2.1586   -8.4068 H         1 UNK         0.3127 
    106 H106       25.9012    0.3261   -8.5894 H         1 UNK         0.0770 
    107 H107       28.2959   -0.5432  -10.2790 H         1 UNK         0.0814 
    108 H108       26.9964    0.5572  -10.7098 H         1 UNK         0.0814 
    109 H109       26.6586   -1.1479  -10.5379 H         1 UNK         0.0814 
    110 H110       28.4046   -0.3202   -6.5700 H         1 UNK         0.2983 
    111 H111       29.8481    0.8509   -5.3349 H         1 UNK         0.0947 
    112 H112       29.0327    3.0913   -4.5800 H         1 UNK         0.0806 
    113 H113       27.7319    1.9210   -4.6489 H         1 UNK         0.0806 
    114 H114       27.8711    3.1330   -5.9087 H         1 UNK         0.0806 
    115 H115       29.5932    4.0044   -6.6186 H         1 UNK         0.3000 
    116 H116       32.3054    4.2252   -7.3147 H         1 UNK         0.0850 
    117 H117       31.6172    6.4402   -8.2628 H         1 UNK         0.0810 
    118 H118       30.8910    6.1639   -6.6893 H         1 UNK         0.0810 
    119 H119       29.9261    5.9714   -8.1544 H         1 UNK         0.0810 
    120 H120       29.6039    3.1502   -9.3351 H         1 UNK         0.3040 
    121 H121       31.1732    3.3395  -11.8269 H         1 UNK         0.0766 
    122 H122       28.3823    2.2513  -11.2286 H         1 UNK         0.0812 
    123 H123       29.1078    2.3280  -12.8283 H         1 UNK         0.0812 
    124 H124       28.7729    3.8086  -11.9458 H         1 UNK         0.0812 
    125 H125       30.9678    1.1072   -9.2160 H         1 UNK         0.3205 
    126 H126       31.7310   -1.2386  -10.8919 H         1 UNK         0.0754 
    127 H127       31.4578   -2.4958   -8.7306 H         1 UNK         0.0769 
    128 H128       29.9741   -1.7425   -9.2697 H         1 UNK         0.0769 
    129 H129       30.8921   -1.0237   -7.9534 H         1 UNK         0.0769 
    130 H130       32.7894    0.5865   -7.9547 H         1 UNK         0.2981 
    131 H131       35.4728   -0.5919   -8.1152 H         1 UNK         0.0541 
    132 H132       35.6304    3.0161   -9.8972 H         1 UNK         0.3459 
    133 H133       34.0895    2.2745   -9.5733 H         1 UNK         0.3459 
    134 H134       34.2625    1.3549   -6.0985 H         1 UNK         0.0612 
    135 H135       35.9035    0.7687   -6.0210 H         1 UNK         0.0612 
    136 H136       32.2077   -0.0234   -5.6229 H         1 UNK         0.0624 
    137 H137       32.9279    0.2750   -4.0583 H         1 UNK         0.0624 
@<TRIPOS>BOND
     1    1    2 1    
     2    1   72 1    
     3    1   73 1    
     4    1   74 1    
     5    2    3 2    
     6    2    4 am   BACKBONE|DICT|INTERRES
     7    4    5 1    
     8    4   75 1    
     9    5    6 1    
    10    5   35 1    
    11    5   76 1    
    12    6    7 1    
    13    6   77 1    
    14    6   78 1    
    15    7    8 1    
    16    8    9 1    
    17    8   79 1    
    18    8   80 1    
    19    9   10 ar   
    20    9   14 ar   
    21   10   11 ar   
    22   10   81 1    
    23   11   12 ar   
    24   11   71 1    
    25   12   13 ar   
    26   12   82 1    
    27   13   14 ar   
    28   13   15 1    
    29   14   83 1    
    30   15   16 1    
    31   15   84 1    
    32   15   85 1    
    33   16   17 1    
    34   17   18 1    
    35   17   86 1    
    36   17   87 1    
    37   18   19 1    
    38   18   37 1    
    39   18   88 1    
    40   19   20 am   BACKBONE|DICT|INTERRES
    41   19   89 1    
    42   20   21 2    
    43   20   22 1    
    44   22   23 1    
    45   22   24 1    
    46   22   90 1    
    47   23   91 1    
    48   23   92 1    
    49   23   93 1    
    50   24   25 am   BACKBONE|DICT|INTERRES
    51   24   94 1    
    52   25   26 2    
    53   25   27 1    
    54   27   28 1    
    55   27   29 1    
    56   27   95 1    
    57   28   96 1    
    58   28   97 1    
    59   28   98 1    
    60   29   30 am   BACKBONE|DICT|INTERRES
    61   29   99 1    
    62   30   31 2    
    63   30   32 1    
    64   32   33 1    
    65   32   34 1    
    66   32  100 1    
    67   33  101 1    
    68   33  102 1    
    69   33  103 1    
    70   34   35 am   BACKBONE|DICT|INTERRES
    71   34  104 1    
    72   35   36 2    
    73   37   38 2    
    74   37   39 am   BACKBONE|DICT|INTERRES
    75   39   40 1    
    76   39  105 1    
    77   40   41 1    
    78   40   42 1    
    79   40  106 1    
    80   41  107 1    
    81   41  108 1    
    82   41  109 1    
    83   42   43 2    
    84   42   44 am   BACKBONE|DICT|INTERRES
    85   44   45 1    
    86   44  110 1    
    87   45   46 1    
    88   45   47 1    
    89   45  111 1    
    90   46  112 1    
    91   46  113 1    
    92   46  114 1    
    93   47   48 2    
    94   47   49 am   BACKBONE|DICT|INTERRES
    95   49   50 1    
    96   49  115 1    
    97   50   51 1    
    98   50   52 1    
    99   50  116 1    
   100   51  117 1    
   101   51  118 1    
   102   51  119 1    
   103   52   53 2    
   104   52   54 am   BACKBONE|DICT|INTERRES
   105   54   55 1    
   106   54  120 1    
   107   55   56 1    
   108   55   57 1    
   109   55  121 1    
   110   56  122 1    
   111   56  123 1    
   112   56  124 1    
   113   57   58 2    
   114   57   59 am   BACKBONE|DICT|INTERRES
   115   59   60 1    
   116   59  125 1    
   117   60   61 1    
   118   60   62 1    
   119   60  126 1    
   120   61  127 1    
   121   61  128 1    
   122   61  129 1    
   123   62   63 2    
   124   62   64 am   BACKBONE|DICT|INTERRES
   125   64   65 1    
   126   64  130 1    
   127   65   66 1    
   128   65   69 1    
   129   65  131 1    
   130   66   67 am   BACKBONE|DICT|INTERRES
   131   66   68 2    
   132   67  132 1    
   133   67  133 1    
   134   69   70 1    
   135   69  134 1    
   136   69  135 1    
   137   70   71 1    
   138   71  136 1    
   139   71  137 1    
@<TRIPOS>SUBSTRUCTURE
     1 UNK         1 GROUP             0       ****    0 ROOT    
