@<TRIPOS>MOLECULE
3R137
137   139    1
SMALL
USER_CHARGES


@<TRIPOS>ATOM
      1 CA         28.4152   -4.1468    1.0379 C.3       0 UNK        -0.2020 
      2 C          27.8893   -3.6352   -0.2938 C.2       0 UNK         0.4855 
      3 O          27.6176   -2.4431   -0.4310 O.2       0 UNK        -0.5197 
      4 N          27.7243   -4.5244   -1.2801 N.am      1 UNK        -0.4892 
      5 CA         27.2923   -4.2188   -2.6524 C.3       1 UNK         0.0835 
      6 C6         27.9118   -5.2016   -3.6807 C.3       12 UNK        -0.0855 
      7 S7         29.7383   -5.0799   -3.7241 S.3       12 UNK        -0.2931 
      8 C8         30.0076   -3.6752   -4.8633 C.3       12 UNK         0.0378 
      9 C9         30.8174   -2.5521   -4.2219 C.ar      12 UNK        -0.0802 
     10 C10        32.0545   -2.1700   -4.7518 C.ar      12 UNK        -0.0944 
     11 C11        32.7744   -1.1108   -4.1848 C.ar      12 UNK        -0.0787 
     12 C12        32.2430   -0.4219   -3.0891 C.ar      12 UNK        -0.0862 
     13 C13        31.0064   -0.7910   -2.5545 C.ar      12 UNK        -0.0733 
     14 C14        30.3146   -1.8633   -3.1154 C.ar      12 UNK        -0.0832 
     15 C15        30.4128   -0.0470   -1.3666 C.3       12 UNK         0.0240 
     16 S16        29.3911    1.3705   -1.8853 S.3       12 UNK        -0.2522 
     17 C17        27.9241    0.5786   -2.6407 C.3       12 UNK        -0.0967 
     18 CA         27.9171    0.6924   -4.1881 C.3       5 UNK         0.0660 
     19 N          27.0159   -0.2815   -4.8162 N.am      5 UNK        -0.4015 
     20 C          27.0296   -0.5692   -6.1293 C.2       4 UNK         0.4946 
     21 O          27.8403   -0.0927   -6.9207 O.2       4 UNK        -0.5353 
     22 CA         25.9439   -1.5086   -6.6849 C.3       4 UNK         0.0277 
     23 CB         26.4544   -2.9543   -6.7159 C.3       4 UNK        -0.1981 
     24 N          24.6789   -1.4559   -5.9525 N.am      4 UNK        -0.4209 
     25 C          23.9171   -0.3612   -5.8151 C.2       3 UNK         0.4942 
     26 O          24.1627    0.7119   -6.3659 O.2       3 UNK        -0.5208 
     27 CA         22.7185   -0.4560   -4.8515 C.3       3 UNK         0.0250 
     28 CB         21.4257   -0.7344   -5.6338 C.3       3 UNK        -0.1990 
     29 N          22.8666   -1.4551   -3.7820 N.am      3 UNK        -0.4232 
     30 C          23.8780   -1.5106   -2.9023 C.2       2 UNK         0.4993 
     31 O          24.8302   -0.7250   -2.9146 O.2       2 UNK        -0.5286 
     32 CA         23.8676   -2.6409   -1.8560 C.3       2 UNK         0.0209 
     33 CB         22.7210   -3.6681   -2.0088 C.3       2 UNK        -0.1931 
     34 N          25.1853   -3.2843   -1.8227 N.am      2 UNK        -0.4546 
     35 C          25.7668   -4.0144   -2.7860 C.2       1 UNK         0.5154 
     36 O          25.1683   -4.4528   -3.7691 O.2       1 UNK        -0.5181 
     37 C          27.5862    2.1265   -4.6524 C.2       5 UNK         0.5014 
     38 O          28.4961    2.8785   -5.0031 O.2       5 UNK        -0.5248 
     39 N          26.2877    2.4653   -4.6841 N.am      6 UNK        -0.4434 
     40 CA         25.7780    3.7589   -5.1479 C.3       6 UNK         0.0363 
     41 CB         24.2942    3.8967   -4.7700 C.3       6 UNK        -0.1936 
     42 C          25.9807    3.9669   -6.6582 C.2       6 UNK         0.5081 
     43 O          26.3288    5.0710   -7.0771 O.2       6 UNK        -0.5248 
     44 N          25.7856    2.8989   -7.4435 N.am      7 UNK        -0.4718 
     45 CA         26.0300    2.8728   -8.8888 C.3       7 UNK         0.0273 
     46 CB         25.3134    1.6519   -9.4887 C.3       7 UNK        -0.1935 
     47 C          27.5244    2.8455   -9.2657 C.2       7 UNK         0.5018 
     48 O          27.8501    3.1353  -10.4175 O.2       7 UNK        -0.5186 
     49 N          28.3886    2.4707   -8.3097 N.am      8 UNK        -0.4240 
     50 CA         29.8239    2.1946   -8.4481 C.3       8 UNK         0.0235 
     51 CB         30.6118    3.4762   -8.7927 C.3       8 UNK        -0.2000 
     52 C          30.1079    1.0264   -9.4146 C.2       8 UNK         0.4941 
     53 O          31.0817    1.0664  -10.1698 O.2       8 UNK        -0.5273 
     54 N          29.2477    0.0007   -9.3737 N.am      9 UNK        -0.4262 
     55 CA         29.3801   -1.2255  -10.1548 C.3       9 UNK         0.0264 
     56 CB         28.0113   -1.9133  -10.2703 C.3       9 UNK        -0.1955 
     57 C          30.4195   -2.1325   -9.4842 C.2       9 UNK         0.5031 
     58 O          30.3010   -2.4033   -8.2872 O.2       9 UNK        -0.5390 
     59 N          31.4308   -2.5459  -10.2623 N.am      10 UNK        -0.4204 
     60 CA         32.6599   -3.2171   -9.8131 C.3       10 UNK         0.0237 
     61 CB         32.3591   -4.6287   -9.2623 C.3       10 UNK        -0.1985 
     62 C          33.4742   -2.3445   -8.8325 C.2       10 UNK         0.4970 
     63 O          34.0526   -2.8644   -7.8767 O.2       10 UNK        -0.4914 
     64 N          33.4920   -1.0313   -9.0894 N.am      11 UNK        -0.4285 
     65 CA         34.1322   -0.0032   -8.2661 C.3       11 UNK         0.1007 
     66 C          34.6856    1.1569   -9.1406 C.2       11 UNK         0.5703 
     67 N          35.1723    2.2263   -8.5264 N.am      11 UNK        -0.7361 
     68 O          34.7044    1.0915  -10.3692 O.2       11 UNK        -0.4986 
     69 C69        33.1876    0.4618   -7.1193 C.3       12 UNK        -0.0947 
     70 S70        34.0927    0.8907   -5.5979 S.3       12 UNK        -0.2240 
     71 C71        34.1345   -0.7159   -4.7425 C.3       12 UNK         0.0194 
     72 H72        29.3444   -3.6378    1.2926 H         1 UNK         0.0906 
     73 H73        27.6910   -3.9500    1.8279 H         1 UNK         0.0906 
     74 H74        28.6109   -5.2187    1.0148 H         1 UNK         0.0906 
     75 H75        27.9424   -5.4957   -1.1059 H         1 UNK         0.3140 
     76 H76        27.6613   -3.2327   -2.9182 H         1 UNK         0.1085 
     77 H77        27.5335   -5.0406   -4.6894 H         1 UNK         0.0836 
     78 H78        27.6380   -6.2276   -3.4289 H         1 UNK         0.0836 
     79 H79        29.0555   -3.2637   -5.1983 H         1 UNK         0.0731 
     80 H80        30.5064   -4.0442   -5.7612 H         1 UNK         0.0731 
     81 H81        32.4554   -2.6917   -5.6108 H         1 UNK         0.1312 
     82 H82        32.7916    0.4040   -2.6569 H         1 UNK         0.1406 
     83 H83        29.3782   -2.1518   -2.6764 H         1 UNK         0.1631 
     84 H84        31.2159    0.3181   -0.7249 H         1 UNK         0.0717 
     85 H85        29.8167   -0.7208   -0.7489 H         1 UNK         0.0717 
     86 H86        27.8897   -0.4664   -2.3343 H         1 UNK         0.0934 
     87 H87        27.0251    1.0244   -2.2104 H         1 UNK         0.0934 
     88 H88        28.9239    0.4597   -4.5443 H         1 UNK         0.0739 
     89 H89        26.2712   -0.6483   -4.2298 H         1 UNK         0.3093 
     90 H90        25.7422   -1.1989   -7.7116 H         1 UNK         0.0818 
     91 H91        27.4373   -3.0249   -7.1837 H         1 UNK         0.0819 
     92 H92        26.5507   -3.3499   -5.7092 H         1 UNK         0.0819 
     93 H93        25.7789   -3.6053   -7.2711 H         1 UNK         0.0819 
     94 H94        24.4012   -2.2946   -5.4618 H         1 UNK         0.3041 
     95 H95        22.6225    0.5192   -4.3696 H         1 UNK         0.0784 
     96 H96        21.2782    0.0073   -6.4205 H         1 UNK         0.0793 
     97 H97        21.4449   -1.7154   -6.1104 H         1 UNK         0.0793 
     98 H98        20.5507   -0.6918   -4.9849 H         1 UNK         0.0793 
     99 H99        22.1364   -2.1492   -3.7103 H         1 UNK         0.3024 
    100 H100       23.7427   -2.1494   -0.8897 H         1 UNK         0.1171 
    101 H101       22.8006   -4.4530   -1.2566 H         1 UNK         0.0786 
    102 H102       21.7482   -3.1951   -1.8685 H         1 UNK         0.0786 
    103 H103       22.7159   -4.1515   -2.9860 H         1 UNK         0.0786 
    104 H104       25.8148   -2.9305   -1.1076 H         1 UNK         0.2977 
    105 H105       25.5992    1.7756   -4.4182 H         1 UNK         0.3127 
    106 H106       26.3344    4.5427   -4.6291 H         1 UNK         0.0770 
    107 H107       23.6791    3.1351   -5.2504 H         1 UNK         0.0814 
    108 H108       23.9048    4.8685   -5.0765 H         1 UNK         0.0814 
    109 H109       24.1491    3.8161   -3.6927 H         1 UNK         0.0814 
    110 H110       25.4133    2.0503   -7.0241 H         1 UNK         0.2983 
    111 H111       25.5982    3.7754   -9.3269 H         1 UNK         0.0947 
    112 H112       25.7296    0.7181   -9.1107 H         1 UNK         0.0806 
    113 H113       25.4117    1.6354  -10.5750 H         1 UNK         0.0806 
    114 H114       24.2477    1.6619   -9.2587 H         1 UNK         0.0806 
    115 H115       27.9954    2.2233   -7.4105 H         1 UNK         0.3000 
    116 H116       30.1553    1.8575   -7.4646 H         1 UNK         0.0850 
    117 H117       30.4032    4.2723   -8.0781 H         1 UNK         0.0810 
    118 H118       30.3692    3.8456   -9.7894 H         1 UNK         0.0810 
    119 H119       31.6867    3.2927   -8.7689 H         1 UNK         0.0810 
    120 H120       28.5742   -0.0156   -8.6094 H         1 UNK         0.3040 
    121 H121       29.7146   -0.9664  -11.1618 H         1 UNK         0.0766 
    122 H122       28.0854   -2.8376  -10.8444 H         1 UNK         0.0812 
    123 H123       27.2885   -1.2722  -10.7753 H         1 UNK         0.0812 
    124 H124       27.6046   -2.1668   -9.2933 H         1 UNK         0.0812 
    125 H125       31.4187   -2.2736  -11.2361 H         1 UNK         0.3205 
    126 H126       33.2852   -3.3380  -10.6989 H         1 UNK         0.0754 
    127 H127       33.2822   -5.1753   -9.0658 H         1 UNK         0.0769 
    128 H128       31.7800   -5.2173   -9.9737 H         1 UNK         0.0769 
    129 H129       31.8015   -4.5902   -8.3260 H         1 UNK         0.0769 
    130 H130       33.0249   -0.6741   -9.9124 H         1 UNK         0.2981 
    131 H131       35.0205   -0.4643   -7.8305 H         1 UNK         0.0541 
    132 H132       35.5454    2.9850   -9.0748 H         1 UNK         0.3459 
    133 H133       35.1617    2.2848   -7.5192 H         1 UNK         0.3459 
    134 H134       32.5931    1.3229   -7.4261 H         1 UNK         0.0612 
    135 H135       32.4589   -0.3122   -6.8752 H         1 UNK         0.0612 
    136 H136       34.8516   -0.6567   -3.9227 H         1 UNK         0.0624 
    137 H137       34.5132   -1.4784   -5.4251 H         1 UNK         0.0624 
@<TRIPOS>BOND
     1    1    2 1    
     2    1   72 1    
     3    1   73 1    
     4    1   74 1    
     5    2    3 2    
     6    2    4 am   BACKBONE|DICT|INTERRES
     7    4    5 1    
     8    4   75 1    
     9    5    6 1    
    10    5   35 1    
    11    5   76 1    
    12    6    7 1    
    13    6   77 1    
    14    6   78 1    
    15    7    8 1    
    16    8    9 1    
    17    8   79 1    
    18    8   80 1    
    19    9   10 ar   
    20    9   14 ar   
    21   10   11 ar   
    22   10   81 1    
    23   11   12 ar   
    24   11   71 1    
    25   12   13 ar   
    26   12   82 1    
    27   13   14 ar   
    28   13   15 1    
    29   14   83 1    
    30   15   16 1    
    31   15   84 1    
    32   15   85 1    
    33   16   17 1    
    34   17   18 1    
    35   17   86 1    
    36   17   87 1    
    37   18   19 1    
    38   18   37 1    
    39   18   88 1    
    40   19   20 am   BACKBONE|DICT|INTERRES
    41   19   89 1    
    42   20   21 2    
    43   20   22 1    
    44   22   23 1    
    45   22   24 1    
    46   22   90 1    
    47   23   91 1    
    48   23   92 1    
    49   23   93 1    
    50   24   25 am   BACKBONE|DICT|INTERRES
    51   24   94 1    
    52   25   26 2    
    53   25   27 1    
    54   27   28 1    
    55   27   29 1    
    56   27   95 1    
    57   28   96 1    
    58   28   97 1    
    59   28   98 1    
    60   29   30 am   BACKBONE|DICT|INTERRES
    61   29   99 1    
    62   30   31 2    
    63   30   32 1    
    64   32   33 1    
    65   32   34 1    
    66   32  100 1    
    67   33  101 1    
    68   33  102 1    
    69   33  103 1    
    70   34   35 am   BACKBONE|DICT|INTERRES
    71   34  104 1    
    72   35   36 2    
    73   37   38 2    
    74   37   39 am   BACKBONE|DICT|INTERRES
    75   39   40 1    
    76   39  105 1    
    77   40   41 1    
    78   40   42 1    
    79   40  106 1    
    80   41  107 1    
    81   41  108 1    
    82   41  109 1    
    83   42   43 2    
    84   42   44 am   BACKBONE|DICT|INTERRES
    85   44   45 1    
    86   44  110 1    
    87   45   46 1    
    88   45   47 1    
    89   45  111 1    
    90   46  112 1    
    91   46  113 1    
    92   46  114 1    
    93   47   48 2    
    94   47   49 am   BACKBONE|DICT|INTERRES
    95   49   50 1    
    96   49  115 1    
    97   50   51 1    
    98   50   52 1    
    99   50  116 1    
   100   51  117 1    
   101   51  118 1    
   102   51  119 1    
   103   52   53 2    
   104   52   54 am   BACKBONE|DICT|INTERRES
   105   54   55 1    
   106   54  120 1    
   107   55   56 1    
   108   55   57 1    
   109   55  121 1    
   110   56  122 1    
   111   56  123 1    
   112   56  124 1    
   113   57   58 2    
   114   57   59 am   BACKBONE|DICT|INTERRES
   115   59   60 1    
   116   59  125 1    
   117   60   61 1    
   118   60   62 1    
   119   60  126 1    
   120   61  127 1    
   121   61  128 1    
   122   61  129 1    
   123   62   63 2    
   124   62   64 am   BACKBONE|DICT|INTERRES
   125   64   65 1    
   126   64  130 1    
   127   65   66 1    
   128   65   69 1    
   129   65  131 1    
   130   66   67 am   BACKBONE|DICT|INTERRES
   131   66   68 2    
   132   67  132 1    
   133   67  133 1    
   134   69   70 1    
   135   69  134 1    
   136   69  135 1    
   137   70   71 1    
   138   71  136 1    
   139   71  137 1    
@<TRIPOS>SUBSTRUCTURE
     1 UNK         1 GROUP             0       ****    0 ROOT    
