@<TRIPOS>MOLECULE
3R137
137   139    1
SMALL
USER_CHARGES


@<TRIPOS>ATOM
      1 CA         27.0308   -4.5891   -8.9458 C.3       0 UNK        -0.2020 
      2 C          26.9079   -5.3769   -7.6504 C.2       0 UNK         0.4855 
      3 O          26.1883   -6.3747   -7.6023 O.2       0 UNK        -0.5197 
      4 N          27.5934   -4.9306   -6.5905 N.am      1 UNK        -0.4892 
      5 CA         27.6480   -5.5372   -5.2535 C.3       1 UNK         0.0835 
      6 C6         28.9458   -5.1216   -4.5074 C.3       12 UNK        -0.0855 
      7 S7         29.2216   -3.3155   -4.4063 S.3       12 UNK        -0.2931 
      8 C8         30.2314   -3.2303   -2.8974 C.3       12 UNK         0.0378 
      9 C9         30.6950   -1.8098   -2.6137 C.ar      12 UNK        -0.0802 
     10 C10        31.8168   -1.2959   -3.2706 C.ar      12 UNK        -0.0944 
     11 C11        32.2670   -0.0004   -2.9992 C.ar      12 UNK        -0.0787 
     12 C12        31.5817    0.7873   -2.0706 C.ar      12 UNK        -0.0862 
     13 C13        30.4590    0.2840   -1.4054 C.ar      12 UNK        -0.0733 
     14 C14        30.0218   -1.0168   -1.6788 C.ar      12 UNK        -0.0832 
     15 C15        29.7304    1.1422   -0.3795 C.3       12 UNK         0.0240 
     16 S16        28.0418    1.5768   -0.9059 S.3       12 UNK        -0.2522 
     17 C17        28.3460    2.4652   -2.4715 C.3       12 UNK        -0.0967 
     18 CA         28.0214    1.5777   -3.7058 C.3       5 UNK         0.0660 
     19 N          26.6242    1.1205   -3.7250 N.am      5 UNK        -0.4015 
     20 C          25.5232    1.8608   -3.9070 C.2       4 UNK         0.4946 
     21 O          25.5335    3.0201   -4.3267 O.2       4 UNK        -0.5353 
     22 CA         24.1827    1.2021   -3.5246 C.3       4 UNK         0.0277 
     23 CB         23.0756    2.2475   -3.2903 C.3       4 UNK        -0.1981 
     24 N          23.6983    0.2232   -4.4993 N.am      4 UNK        -0.4209 
     25 C          24.2394   -0.9762   -4.7406 C.2       3 UNK         0.4942 
     26 O          25.2933   -1.3679   -4.2341 O.2       3 UNK        -0.5208 
     27 CA         23.4522   -1.8832   -5.7029 C.3       3 UNK         0.0250 
     28 CB         23.6780   -1.4926   -7.1732 C.3       3 UNK        -0.1990 
     29 N          23.7998   -3.2926   -5.5158 N.am      3 UNK        -0.4232 
     30 C          23.3329   -4.0643   -4.5244 C.2       2 UNK         0.4993 
     31 O          22.4957   -3.6904   -3.7013 O.2       2 UNK        -0.5286 
     32 CA         23.8695   -5.5036   -4.4431 C.3       2 UNK         0.0209 
     33 CB         22.9024   -6.4766   -5.1376 C.3       2 UNK        -0.1931 
     34 N          25.2019   -5.6517   -5.0340 N.am      2 UNK        -0.4546 
     35 C          26.3514   -5.3219   -4.4314 C.2       1 UNK         0.5154 
     36 O          26.4025   -4.8889   -3.2789 O.2       1 UNK        -0.5181 
     37 C          28.4361    2.2269   -5.0396 C.2       5 UNK         0.5014 
     38 O          28.8410    1.5121   -5.9554 O.2       5 UNK        -0.5248 
     39 N          28.2825    3.5529   -5.1623 N.am      6 UNK        -0.4434 
     40 CA         28.4848    4.3053   -6.4042 C.3       6 UNK         0.0363 
     41 CB         28.3575    5.8088   -6.1136 C.3       6 UNK        -0.1936 
     42 C          27.5229    3.8900   -7.5346 C.2       6 UNK         0.5081 
     43 O          27.8818    4.0226   -8.7041 O.2       6 UNK        -0.5248 
     44 N          26.3391    3.3693   -7.1756 N.am      7 UNK        -0.4718 
     45 CA         25.3845    2.7748   -8.1152 C.3       7 UNK         0.0273 
     46 CB         24.0036    2.6772   -7.4493 C.3       7 UNK        -0.1935 
     47 C          25.8346    1.3978   -8.6399 C.2       7 UNK         0.5018 
     48 O          25.4384    1.0246   -9.7442 O.2       7 UNK        -0.5186 
     49 N          26.6482    0.6725   -7.8571 N.am      8 UNK        -0.4240 
     50 CA         27.3015   -0.5689   -8.2775 C.3       8 UNK         0.0235 
     51 CB         27.6355   -1.4393   -7.0520 C.3       8 UNK        -0.2000 
     52 C          28.5767   -0.2730   -9.0770 C.2       8 UNK         0.4941 
     53 O          28.7934   -0.8878  -10.1209 O.2       8 UNK        -0.5273 
     54 N          29.3979    0.6479   -8.5492 N.am      9 UNK        -0.4262 
     55 CA         30.6953    1.1000   -9.0649 C.3       9 UNK         0.0264 
     56 CB         30.5364    1.8027  -10.4293 C.3       9 UNK        -0.1955 
     57 C          31.7772    0.0013   -9.0851 C.2       9 UNK         0.5031 
     58 O          32.7824    0.1471   -9.7841 O.2       9 UNK        -0.5390 
     59 N          31.5941   -1.0595   -8.2860 N.am      10 UNK        -0.4204 
     60 CA         32.5210   -2.1833   -8.1176 C.3       10 UNK         0.0237 
     61 CB         31.7220   -3.4119   -7.6409 C.3       10 UNK        -0.1985 
     62 C          33.6779   -1.8183   -7.1653 C.2       10 UNK         0.4970 
     63 O          33.9211   -2.5265   -6.1865 O.2       10 UNK        -0.4914 
     64 N          34.3362   -0.6912   -7.4538 N.am      11 UNK        -0.4285 
     65 CA         35.3168   -0.0210   -6.5870 C.3       11 UNK         0.1007 
     66 C          36.7184    0.1295   -7.2429 C.2       11 UNK         0.5703 
     67 N          36.9601   -0.4143   -8.4303 N.am      11 UNK        -0.7361 
     68 O          37.6131    0.7346   -6.6568 O.2       11 UNK        -0.4986 
     69 C69        34.7752    1.3401   -6.0575 C.3       12 UNK        -0.0947 
     70 S70        33.1075    1.2380   -5.3168 S.3       12 UNK        -0.2240 
     71 C71        33.5098    0.5324   -3.6924 C.3       12 UNK         0.0194 
     72 H72        27.9688   -4.0369   -8.9968 H         1 UNK         0.0906 
     73 H73        26.9974   -5.2633   -9.8014 H         1 UNK         0.0906 
     74 H74        26.2066   -3.8824   -9.0378 H         1 UNK         0.0906 
     75 H75        28.1469   -4.0902   -6.6724 H         1 UNK         0.3140 
     76 H76        27.7107   -6.6188   -5.3947 H         1 UNK         0.1085 
     77 H77        28.9636   -5.5548   -3.5054 H         1 UNK         0.0836 
     78 H78        29.8070   -5.5519   -5.0212 H         1 UNK         0.0836 
     79 H79        29.6548   -3.6174   -2.0558 H         1 UNK         0.0731 
     80 H80        31.0985   -3.8838   -3.0057 H         1 UNK         0.0731 
     81 H81        32.3430   -1.9067   -3.9923 H         1 UNK         0.1312 
     82 H82        31.9297    1.7896   -1.8608 H         1 UNK         0.1406 
     83 H83        29.1534   -1.4078   -1.1655 H         1 UNK         0.1631 
     84 H84        30.2842    2.0593   -0.1725 H         1 UNK         0.0717 
     85 H85        29.6757    0.5996    0.5653 H         1 UNK         0.0717 
     86 H86        27.7307    3.3663   -2.4613 H         1 UNK         0.0934 
     87 H87        29.3832    2.8050   -2.4978 H         1 UNK         0.0934 
     88 H88        28.6245    0.6718   -3.6272 H         1 UNK         0.0739 
     89 H89        26.4820    0.1367   -3.5182 H         1 UNK         0.3093 
     90 H90        24.3425    0.6810   -2.5778 H         1 UNK         0.0818 
     91 H91        22.1647    1.7852   -2.9096 H         1 UNK         0.0819 
     92 H92        23.3898    2.9902   -2.5555 H         1 UNK         0.0819 
     93 H93        22.8237    2.7840   -4.2062 H         1 UNK         0.0819 
     94 H94        22.8408    0.4642   -4.9750 H         1 UNK         0.3041 
     95 H95        22.3894   -1.7591   -5.4825 H         1 UNK         0.0784 
     96 H96        23.4714   -0.4353   -7.3419 H         1 UNK         0.0793 
     97 H97        24.6988   -1.6809   -7.4970 H         1 UNK         0.0793 
     98 H98        23.0170   -2.0553   -7.8326 H         1 UNK         0.0793 
     99 H99        24.5212   -3.6699   -6.1105 H         1 UNK         0.3024 
    100 H100       23.9231   -5.7707   -3.3849 H         1 UNK         0.1171 
    101 H101       21.9020   -6.4066   -4.7080 H         1 UNK         0.0786 
    102 H102       23.2307   -7.5100   -5.0240 H         1 UNK         0.0786 
    103 H103       22.8153   -6.2673   -6.2046 H         1 UNK         0.0786 
    104 H104       25.2623   -6.0180   -5.9813 H         1 UNK         0.2977 
    105 H105       27.8630    4.0568   -4.3939 H         1 UNK         0.3127 
    106 H106       29.5009    4.1058   -6.7514 H         1 UNK         0.0770 
    107 H107       27.3645    6.0654   -5.7422 H         1 UNK         0.0814 
    108 H108       28.5292    6.3959   -7.0170 H         1 UNK         0.0814 
    109 H109       29.0892    6.1344   -5.3740 H         1 UNK         0.0814 
    110 H110       26.1047    3.3230   -6.1866 H         1 UNK         0.2983 
    111 H111       25.2967    3.4385   -8.9786 H         1 UNK         0.0947 
    112 H112       23.2624    2.2783   -8.1432 H         1 UNK         0.0806 
    113 H113       23.6498    3.6554   -7.1231 H         1 UNK         0.0806 
    114 H114       24.0228    2.0223   -6.5802 H         1 UNK         0.0806 
    115 H115       26.9730    1.0813   -6.9908 H         1 UNK         0.3000 
    116 H116       26.6274   -1.1343   -8.9246 H         1 UNK         0.0850 
    117 H117       28.2353   -2.2996   -7.3440 H         1 UNK         0.0810 
    118 H118       28.2113   -0.9020   -6.3002 H         1 UNK         0.0810 
    119 H119       26.7417   -1.8177   -6.5600 H         1 UNK         0.0810 
    120 H120       29.1407    1.0398   -7.6423 H         1 UNK         0.3040 
    121 H121       31.0484    1.8468   -8.3520 H         1 UNK         0.0766 
    122 H122       29.7783    2.5849  -10.3848 H         1 UNK         0.0812 
    123 H123       30.2519    1.1027  -11.2152 H         1 UNK         0.0812 
    124 H124       31.4697    2.2751  -10.7382 H         1 UNK         0.0812 
    125 H125       30.7719   -1.0646   -7.7012 H         1 UNK         0.3205 
    126 H126       32.9621   -2.4255   -9.0867 H         1 UNK         0.0754 
    127 H127       32.3648   -4.2894   -7.5595 H         1 UNK         0.0769 
    128 H128       30.9223   -3.6618   -8.3385 H         1 UNK         0.0769 
    129 H129       31.2734   -3.2449   -6.6609 H         1 UNK         0.0769 
    130 H130       34.0629   -0.1885   -8.2923 H         1 UNK         0.2981 
    131 H131       35.5054   -0.6524   -5.7183 H         1 UNK         0.0541 
    132 H132       37.8751   -0.3154   -8.8412 H         1 UNK         0.3459 
    133 H133       36.2433   -0.9329   -8.9122 H         1 UNK         0.3459 
    134 H134       34.7243    2.0639   -6.8728 H         1 UNK         0.0612 
    135 H135       35.4558    1.7643   -5.3171 H         1 UNK         0.0612 
    136 H136       33.9978    1.2922   -3.0801 H         1 UNK         0.0624 
    137 H137       34.2289   -0.2791   -3.8087 H         1 UNK         0.0624 
@<TRIPOS>BOND
     1    1    2 1    
     2    1   72 1    
     3    1   73 1    
     4    1   74 1    
     5    2    3 2    
     6    2    4 am   BACKBONE|DICT|INTERRES
     7    4    5 1    
     8    4   75 1    
     9    5    6 1    
    10    5   35 1    
    11    5   76 1    
    12    6    7 1    
    13    6   77 1    
    14    6   78 1    
    15    7    8 1    
    16    8    9 1    
    17    8   79 1    
    18    8   80 1    
    19    9   10 ar   
    20    9   14 ar   
    21   10   11 ar   
    22   10   81 1    
    23   11   12 ar   
    24   11   71 1    
    25   12   13 ar   
    26   12   82 1    
    27   13   14 ar   
    28   13   15 1    
    29   14   83 1    
    30   15   16 1    
    31   15   84 1    
    32   15   85 1    
    33   16   17 1    
    34   17   18 1    
    35   17   86 1    
    36   17   87 1    
    37   18   19 1    
    38   18   37 1    
    39   18   88 1    
    40   19   20 am   BACKBONE|DICT|INTERRES
    41   19   89 1    
    42   20   21 2    
    43   20   22 1    
    44   22   23 1    
    45   22   24 1    
    46   22   90 1    
    47   23   91 1    
    48   23   92 1    
    49   23   93 1    
    50   24   25 am   BACKBONE|DICT|INTERRES
    51   24   94 1    
    52   25   26 2    
    53   25   27 1    
    54   27   28 1    
    55   27   29 1    
    56   27   95 1    
    57   28   96 1    
    58   28   97 1    
    59   28   98 1    
    60   29   30 am   BACKBONE|DICT|INTERRES
    61   29   99 1    
    62   30   31 2    
    63   30   32 1    
    64   32   33 1    
    65   32   34 1    
    66   32  100 1    
    67   33  101 1    
    68   33  102 1    
    69   33  103 1    
    70   34   35 am   BACKBONE|DICT|INTERRES
    71   34  104 1    
    72   35   36 2    
    73   37   38 2    
    74   37   39 am   BACKBONE|DICT|INTERRES
    75   39   40 1    
    76   39  105 1    
    77   40   41 1    
    78   40   42 1    
    79   40  106 1    
    80   41  107 1    
    81   41  108 1    
    82   41  109 1    
    83   42   43 2    
    84   42   44 am   BACKBONE|DICT|INTERRES
    85   44   45 1    
    86   44  110 1    
    87   45   46 1    
    88   45   47 1    
    89   45  111 1    
    90   46  112 1    
    91   46  113 1    
    92   46  114 1    
    93   47   48 2    
    94   47   49 am   BACKBONE|DICT|INTERRES
    95   49   50 1    
    96   49  115 1    
    97   50   51 1    
    98   50   52 1    
    99   50  116 1    
   100   51  117 1    
   101   51  118 1    
   102   51  119 1    
   103   52   53 2    
   104   52   54 am   BACKBONE|DICT|INTERRES
   105   54   55 1    
   106   54  120 1    
   107   55   56 1    
   108   55   57 1    
   109   55  121 1    
   110   56  122 1    
   111   56  123 1    
   112   56  124 1    
   113   57   58 2    
   114   57   59 am   BACKBONE|DICT|INTERRES
   115   59   60 1    
   116   59  125 1    
   117   60   61 1    
   118   60   62 1    
   119   60  126 1    
   120   61  127 1    
   121   61  128 1    
   122   61  129 1    
   123   62   63 2    
   124   62   64 am   BACKBONE|DICT|INTERRES
   125   64   65 1    
   126   64  130 1    
   127   65   66 1    
   128   65   69 1    
   129   65  131 1    
   130   66   67 am   BACKBONE|DICT|INTERRES
   131   66   68 2    
   132   67  132 1    
   133   67  133 1    
   134   69   70 1    
   135   69  134 1    
   136   69  135 1    
   137   70   71 1    
   138   71  136 1    
   139   71  137 1    
@<TRIPOS>SUBSTRUCTURE
     1 UNK         1 GROUP             0       ****    0 ROOT    
