@<TRIPOS>MOLECULE
3R137
137   139    1
SMALL
USER_CHARGES


@<TRIPOS>ATOM
      1 CA         28.7136   -1.7086    3.3854 C.3       0 UNK        -0.2020 
      2 C          28.7532   -1.1438    1.9734 C.2       0 UNK         0.4855 
      3 O          29.1334    0.0121    1.7867 O.2       0 UNK        -0.5197 
      4 N          28.3614   -1.9496    0.9775 N.am      1 UNK        -0.4892 
      5 CA         28.3499   -1.5813   -0.4471 C.3       1 UNK         0.0835 
      6 C6         28.2961   -2.8279   -1.3680 C.3       12 UNK        -0.0855 
      7 S7         29.6835   -3.9698   -1.0548 S.3       12 UNK        -0.2931 
      8 C8         29.5114   -5.1488   -2.4378 C.3       12 UNK         0.0378 
      9 C9         29.9615   -4.6116   -3.7965 C.ar      12 UNK        -0.0802 
     10 C10        31.0638   -3.7547   -3.9190 C.ar      12 UNK        -0.0944 
     11 C11        31.4974   -3.3273   -5.1766 C.ar      12 UNK        -0.0787 
     12 C12        30.8126   -3.7529   -6.3164 C.ar      12 UNK        -0.0862 
     13 C13        29.7125   -4.6093   -6.2204 C.ar      12 UNK        -0.0733 
     14 C14        29.3015   -5.0435   -4.9536 C.ar      12 UNK        -0.0832 
     15 C15        29.0496   -5.0863   -7.5148 C.3       12 UNK         0.0240 
     16 S16        27.2802   -5.5381   -7.4141 S.3       12 UNK        -0.2522 
     17 C17        26.4782   -4.0823   -6.6641 C.3       12 UNK        -0.0967 
     18 CA         26.3068   -2.8659   -7.6163 C.3       5 UNK         0.0660 
     19 N          25.0675   -2.1440   -7.3119 N.am      5 UNK        -0.4015 
     20 C          24.6501   -0.9898   -7.8519 C.2       4 UNK         0.4946 
     21 O          25.2011   -0.4333   -8.8005 O.2       4 UNK        -0.5353 
     22 CA         23.4419   -0.3066   -7.1832 C.3       4 UNK         0.0277 
     23 CB         22.1677   -0.5472   -8.0079 C.3       4 UNK        -0.1981 
     24 N          23.2064   -0.7125   -5.7896 N.am      4 UNK        -0.4209 
     25 C          24.0745   -0.5658   -4.7776 C.2       3 UNK         0.4942 
     26 O          25.2056   -0.0870   -4.9008 O.2       3 UNK        -0.5208 
     27 CA         23.6264   -1.1222   -3.4236 C.3       3 UNK         0.0250 
     28 CB         23.8345   -2.6480   -3.3685 C.3       3 UNK        -0.1990 
     29 N          24.3990   -0.4871   -2.3615 N.am      3 UNK        -0.4232 
     30 C          23.9945   -0.3230   -1.0981 C.2       2 UNK         0.4993 
     31 O          22.8982   -0.7005   -0.6788 O.2       2 UNK        -0.5286 
     32 CA         25.0009    0.3398   -0.1386 C.3       2 UNK         0.0209 
     33 CB         24.3908    0.6554    1.2405 C.3       2 UNK        -0.1931 
     34 N          26.1794   -0.5088    0.0514 N.am      2 UNK        -0.4546 
     35 C          27.2108   -0.6001   -0.7998 C.2       1 UNK         0.5154 
     36 O          27.2752    0.0516   -1.8415 O.2       1 UNK        -0.5181 
     37 C          27.5387   -1.9399   -7.5410 C.2       5 UNK         0.5014 
     38 O          28.3219   -1.8780   -8.4902 O.2       5 UNK        -0.5248 
     39 N          27.6612   -1.2079   -6.4236 N.am      6 UNK        -0.4434 
     40 CA         28.7752   -0.2992   -6.1702 C.3       6 UNK         0.0363 
     41 CB         28.8112    0.0827   -4.6858 C.3       6 UNK        -0.1936 
     42 C          28.7285    0.9532   -7.0518 C.2       6 UNK         0.5081 
     43 O          29.7825    1.4299   -7.4684 O.2       6 UNK        -0.5248 
     44 N          27.5168    1.4420   -7.3519 N.am      7 UNK        -0.4718 
     45 CA         27.2856    2.5581   -8.2715 C.3       7 UNK         0.0273 
     46 CB         25.8249    3.0257   -8.1704 C.3       7 UNK        -0.1935 
     47 C          27.6526    2.2016   -9.7217 C.2       7 UNK         0.5018 
     48 O          28.2697    3.0198  -10.4035 O.2       7 UNK        -0.5186 
     49 N          27.2980    0.9816  -10.1515 N.am      8 UNK        -0.4240 
     50 CA         27.6541    0.4196  -11.4556 C.3       8 UNK         0.0235 
     51 CB         26.8553   -0.8713  -11.6985 C.3       8 UNK        -0.2000 
     52 C          29.1638    0.1645  -11.5969 C.2       8 UNK         0.4941 
     53 O          29.7343    0.4937  -12.6378 O.2       8 UNK        -0.5273 
     54 N          29.7849   -0.4011  -10.5514 N.am      9 UNK        -0.4262 
     55 CA         31.2284   -0.6507  -10.4861 C.3       9 UNK         0.0264 
     56 CB         31.5190   -1.6234   -9.3344 C.3       9 UNK        -0.1955 
     57 C          32.0710    0.6273  -10.3242 C.2       9 UNK         0.5031 
     58 O          33.2281    0.6356  -10.7465 O.2       9 UNK        -0.5390 
     59 N          31.4871    1.6606   -9.7002 N.am      10 UNK        -0.4204 
     60 CA         32.0915    2.9385   -9.3084 C.3       10 UNK         0.0237 
     61 CB         32.5442    3.7491  -10.5420 C.3       10 UNK        -0.1985 
     62 C          33.1948    2.7739   -8.2431 C.2       10 UNK         0.4970 
     63 O          34.1628    3.5374   -8.2416 O.2       10 UNK        -0.4914 
     64 N          33.0318    1.7816   -7.3581 N.am      11 UNK        -0.4285 
     65 CA         33.9288    1.5126   -6.2263 C.3       11 UNK         0.1007 
     66 C          33.6628    2.4436   -5.0095 C.2       11 UNK         0.5703 
     67 N          34.5887    2.4988   -4.0609 N.am      11 UNK        -0.7361 
     68 O          32.6329    3.1085   -4.9068 O.2       11 UNK        -0.4986 
     69 C69        33.9470    0.0056   -5.8502 C.3       12 UNK        -0.0947 
     70 S70        32.3225   -0.6880   -5.3984 S.3       12 UNK        -0.2240 
     71 C71        32.7374   -2.4551   -5.3173 C.3       12 UNK         0.0194 
     72 H72        28.0452   -1.1149    4.0085 H         1 UNK         0.0906 
     73 H73        28.3659   -2.7414    3.4029 H         1 UNK         0.0906 
     74 H74        29.7086   -1.6791    3.8288 H         1 UNK         0.0906 
     75 H75        28.0908   -2.9017    1.1824 H         1 UNK         0.3140 
     76 H76        29.2820   -1.0526   -0.6607 H         1 UNK         0.1085 
     77 H77        27.3585   -3.3708   -1.2325 H         1 UNK         0.0836 
     78 H78        28.3306   -2.5294   -2.4178 H         1 UNK         0.0836 
     79 H79        28.4734   -5.4826   -2.4818 H         1 UNK         0.0731 
     80 H80        30.1083   -6.0328   -2.2100 H         1 UNK         0.0731 
     81 H81        31.6040   -3.4373   -3.0379 H         1 UNK         0.1312 
     82 H82        31.1577   -3.4350   -7.2885 H         1 UNK         0.1406 
     83 H83        28.4741   -5.7341   -4.8666 H         1 UNK         0.1631 
     84 H84        29.5967   -5.9616   -7.8665 H         1 UNK         0.0717 
     85 H85        29.1648   -4.3346   -8.2958 H         1 UNK         0.0717 
     86 H86        25.4970   -4.4440   -6.3518 H         1 UNK         0.0934 
     87 H87        26.9760   -3.8127   -5.7313 H         1 UNK         0.0934 
     88 H88        26.2149   -3.2194   -8.6453 H         1 UNK         0.0739 
     89 H89        24.5163   -2.5152   -6.5539 H         1 UNK         0.3093 
     90 H90        23.6465    0.7657   -7.1764 H         1 UNK         0.0818 
     91 H91        21.3235    0.0162   -7.6099 H         1 UNK         0.0819 
     92 H92        22.3067   -0.2282   -9.0422 H         1 UNK         0.0819 
     93 H93        21.8906   -1.6020   -8.0273 H         1 UNK         0.0819 
     94 H94        22.3059   -1.1272   -5.5932 H         1 UNK         0.3041 
     95 H95        22.5677   -0.8884   -3.2901 H         1 UNK         0.0784 
     96 H96        23.2645   -3.1557   -4.1474 H         1 UNK         0.0793 
     97 H97        24.8840   -2.9159   -3.4997 H         1 UNK         0.0793 
     98 H98        23.5048   -3.0580   -2.4136 H         1 UNK         0.0793 
     99 H99        25.3151   -0.1439   -2.6397 H         1 UNK         0.3024 
    100 H100       25.3081    1.2859   -0.5911 H         1 UNK         0.1171 
    101 H101       25.1056    1.1735    1.8802 H         1 UNK         0.0786 
    102 H102       23.5180    1.3025    1.1423 H         1 UNK         0.0786 
    103 H103       24.0703   -0.2488    1.7596 H         1 UNK         0.0786 
    104 H104       26.1925   -1.0950    0.8733 H         1 UNK         0.2977 
    105 H105       26.9247   -1.2262   -5.7287 H         1 UNK         0.3127 
    106 H106       29.6931   -0.8361   -6.4099 H         1 UNK         0.0770 
    107 H107       27.8975    0.5933   -4.3800 H         1 UNK         0.0814 
    108 H108       29.6457    0.7530   -4.4754 H         1 UNK         0.0814 
    109 H109       28.9380   -0.7964   -4.0545 H         1 UNK         0.0814 
    110 H110       26.7041    0.9781   -6.9707 H         1 UNK         0.2983 
    111 H111       27.9294    3.3843   -7.9610 H         1 UNK         0.0947 
    112 H112       25.6566    3.9045   -8.7943 H         1 UNK         0.0806 
    113 H113       25.5640    3.2997   -7.1481 H         1 UNK         0.0806 
    114 H114       25.1274    2.2566   -8.5020 H         1 UNK         0.0806 
    115 H115       26.7280    0.3975   -9.5429 H         1 UNK         0.3000 
    116 H116       27.3676    1.1451  -12.2200 H         1 UNK         0.0850 
    117 H117       27.0925   -1.3010  -12.6727 H         1 UNK         0.0810 
    118 H118       25.7820   -0.6811  -11.6793 H         1 UNK         0.0810 
    119 H119       27.0711   -1.6291  -10.9444 H         1 UNK         0.0810 
    120 H120       29.2269   -0.7188   -9.7617 H         1 UNK         0.3040 
    121 H121       31.5327   -1.1284  -11.4199 H         1 UNK         0.0766 
    122 H122       31.2033   -1.2131   -8.3745 H         1 UNK         0.0812 
    123 H123       32.5852   -1.8429   -9.2621 H         1 UNK         0.0812 
    124 H124       31.0002   -2.5702   -9.4840 H         1 UNK         0.0812 
    125 H125       30.5643    1.5032   -9.3065 H         1 UNK         0.3205 
    126 H126       31.2942    3.5036   -8.8233 H         1 UNK         0.0754 
    127 H127       33.3942    3.2859  -11.0438 H         1 UNK         0.0769 
    128 H128       31.7369    3.8461  -11.2681 H         1 UNK         0.0769 
    129 H129       32.8460    4.7577  -10.2574 H         1 UNK         0.0769 
    130 H130       32.1657    1.2598   -7.3697 H         1 UNK         0.2981 
    131 H131       34.9404    1.7528   -6.5597 H         1 UNK         0.0541 
    132 H132       35.4382    1.9604   -4.1273 H         1 UNK         0.3459 
    133 H133       34.4340    3.0932   -3.2617 H         1 UNK         0.3459 
    134 H134       34.6437   -0.1808   -5.0313 H         1 UNK         0.0612 
    135 H135       34.3307   -0.5635   -6.6984 H         1 UNK         0.0612 
    136 H136       33.2819   -2.7398   -6.2190 H         1 UNK         0.0624 
    137 H137       33.4174   -2.6244   -4.4810 H         1 UNK         0.0624 
@<TRIPOS>BOND
     1    1    2 1    
     2    1   72 1    
     3    1   73 1    
     4    1   74 1    
     5    2    3 2    
     6    2    4 am   BACKBONE|DICT|INTERRES
     7    4    5 1    
     8    4   75 1    
     9    5    6 1    
    10    5   35 1    
    11    5   76 1    
    12    6    7 1    
    13    6   77 1    
    14    6   78 1    
    15    7    8 1    
    16    8    9 1    
    17    8   79 1    
    18    8   80 1    
    19    9   10 ar   
    20    9   14 ar   
    21   10   11 ar   
    22   10   81 1    
    23   11   12 ar   
    24   11   71 1    
    25   12   13 ar   
    26   12   82 1    
    27   13   14 ar   
    28   13   15 1    
    29   14   83 1    
    30   15   16 1    
    31   15   84 1    
    32   15   85 1    
    33   16   17 1    
    34   17   18 1    
    35   17   86 1    
    36   17   87 1    
    37   18   19 1    
    38   18   37 1    
    39   18   88 1    
    40   19   20 am   BACKBONE|DICT|INTERRES
    41   19   89 1    
    42   20   21 2    
    43   20   22 1    
    44   22   23 1    
    45   22   24 1    
    46   22   90 1    
    47   23   91 1    
    48   23   92 1    
    49   23   93 1    
    50   24   25 am   BACKBONE|DICT|INTERRES
    51   24   94 1    
    52   25   26 2    
    53   25   27 1    
    54   27   28 1    
    55   27   29 1    
    56   27   95 1    
    57   28   96 1    
    58   28   97 1    
    59   28   98 1    
    60   29   30 am   BACKBONE|DICT|INTERRES
    61   29   99 1    
    62   30   31 2    
    63   30   32 1    
    64   32   33 1    
    65   32   34 1    
    66   32  100 1    
    67   33  101 1    
    68   33  102 1    
    69   33  103 1    
    70   34   35 am   BACKBONE|DICT|INTERRES
    71   34  104 1    
    72   35   36 2    
    73   37   38 2    
    74   37   39 am   BACKBONE|DICT|INTERRES
    75   39   40 1    
    76   39  105 1    
    77   40   41 1    
    78   40   42 1    
    79   40  106 1    
    80   41  107 1    
    81   41  108 1    
    82   41  109 1    
    83   42   43 2    
    84   42   44 am   BACKBONE|DICT|INTERRES
    85   44   45 1    
    86   44  110 1    
    87   45   46 1    
    88   45   47 1    
    89   45  111 1    
    90   46  112 1    
    91   46  113 1    
    92   46  114 1    
    93   47   48 2    
    94   47   49 am   BACKBONE|DICT|INTERRES
    95   49   50 1    
    96   49  115 1    
    97   50   51 1    
    98   50   52 1    
    99   50  116 1    
   100   51  117 1    
   101   51  118 1    
   102   51  119 1    
   103   52   53 2    
   104   52   54 am   BACKBONE|DICT|INTERRES
   105   54   55 1    
   106   54  120 1    
   107   55   56 1    
   108   55   57 1    
   109   55  121 1    
   110   56  122 1    
   111   56  123 1    
   112   56  124 1    
   113   57   58 2    
   114   57   59 am   BACKBONE|DICT|INTERRES
   115   59   60 1    
   116   59  125 1    
   117   60   61 1    
   118   60   62 1    
   119   60  126 1    
   120   61  127 1    
   121   61  128 1    
   122   61  129 1    
   123   62   63 2    
   124   62   64 am   BACKBONE|DICT|INTERRES
   125   64   65 1    
   126   64  130 1    
   127   65   66 1    
   128   65   69 1    
   129   65  131 1    
   130   66   67 am   BACKBONE|DICT|INTERRES
   131   66   68 2    
   132   67  132 1    
   133   67  133 1    
   134   69   70 1    
   135   69  134 1    
   136   69  135 1    
   137   70   71 1    
   138   71  136 1    
   139   71  137 1    
@<TRIPOS>SUBSTRUCTURE
     1 UNK         1 GROUP             0       ****    0 ROOT    
