@<TRIPOS>MOLECULE
3R137
137   139    1
SMALL
USER_CHARGES


@<TRIPOS>ATOM
      1 CA         26.0638   -7.1941    0.8126 C.3       0 UNK        -0.2020 
      2 C          26.4597   -5.7263    0.7525 C.2       0 UNK         0.4855 
      3 O          26.6365   -5.0964    1.7961 O.2       0 UNK        -0.5197 
      4 N          26.6106   -5.1810   -0.4606 N.am      1 UNK        -0.4892 
      5 CA         26.9352   -3.7724   -0.7146 C.3       1 UNK         0.0835 
      6 C6         27.3628   -3.5369   -2.1846 C.3       12 UNK        -0.0855 
      7 S7         28.8019   -4.5496   -2.6677 S.3       12 UNK        -0.2931 
      8 C8         30.1577   -3.3375   -2.6013 C.3       12 UNK         0.0378 
      9 C9         30.0681   -2.3219   -3.7310 C.ar      12 UNK        -0.0802 
     10 C10        30.4073   -2.6939   -5.0352 C.ar      12 UNK        -0.0944 
     11 C11        30.3531   -1.7622   -6.0752 C.ar      12 UNK        -0.0787 
     12 C12        29.9472   -0.4523   -5.8053 C.ar      12 UNK        -0.0862 
     13 C13        29.6013   -0.0698   -4.5064 C.ar      12 UNK        -0.0733 
     14 C14        29.6668   -1.0075   -3.4720 C.ar      12 UNK        -0.0832 
     15 C15        29.1769    1.3622   -4.2191 C.3       12 UNK         0.0240 
     16 S16        27.6116    1.7880   -5.0407 S.3       12 UNK        -0.2522 
     17 C17        26.4093    0.6949   -4.1998 C.3       12 UNK        -0.0967 
     18 CA         25.9343   -0.5211   -5.0402 C.3       5 UNK         0.0660 
     19 N          24.9784   -1.3413   -4.2836 N.am      5 UNK        -0.4015 
     20 C          24.4931   -2.5254   -4.6956 C.2       4 UNK         0.4946 
     21 O          24.9359   -3.1268   -5.6757 O.2       4 UNK        -0.5353 
     22 CA         23.3189   -3.1584   -3.9178 C.3       4 UNK         0.0277 
     23 CB         23.6289   -4.6009   -3.4775 C.3       4 UNK        -0.1981 
     24 N          22.8898   -2.3753   -2.7559 N.am      4 UNK        -0.4209 
     25 C          22.0233   -1.3518   -2.8089 C.2       3 UNK         0.4942 
     26 O          21.4442   -1.0048   -3.8384 O.2       3 UNK        -0.5208 
     27 CA         21.7592   -0.5622   -1.5103 C.3       3 UNK         0.0250 
     28 CB         20.4256   -0.9967   -0.8805 C.3       3 UNK        -0.1990 
     29 N          22.8203   -0.6698   -0.5041 N.am      3 UNK        -0.4232 
     30 C          24.0922   -0.2833   -0.6727 C.2       2 UNK         0.4993 
     31 O          24.5145    0.2314   -1.7080 O.2       2 UNK        -0.5286 
     32 CA         25.0827   -0.5803    0.4694 C.3       2 UNK         0.0209 
     33 CB         24.4075   -0.9321    1.8155 C.3       2 UNK        -0.1931 
     34 N          26.0408   -1.6290    0.0898 N.am      2 UNK        -0.4546 
     35 C          25.7441   -2.8613   -0.3526 C.2       1 UNK         0.5154 
     36 O          24.5911   -3.2725   -0.5160 O.2       1 UNK        -0.5181 
     37 C          25.3066   -0.0805   -6.3836 C.2       5 UNK         0.5014 
     38 O          24.1357    0.3096   -6.4103 O.2       5 UNK        -0.5248 
     39 N          26.0999   -0.1259   -7.4600 N.am      6 UNK        -0.4434 
     40 CA         25.7028    0.3094   -8.7963 C.3       6 UNK         0.0363 
     41 CB         24.9533   -0.8139   -9.5393 C.3       6 UNK        -0.1936 
     42 C          26.9316    0.7989   -9.5655 C.2       6 UNK         0.5081 
     43 O          27.0408    1.9931   -9.8438 O.2       6 UNK        -0.5248 
     44 N          27.8572   -0.1202   -9.8740 N.am      7 UNK        -0.4718 
     45 CA         29.0584    0.1246  -10.6828 C.3       7 UNK         0.0273 
     46 CB         29.5223   -1.2077  -11.3016 C.3       7 UNK        -0.1935 
     47 C          30.1863    0.8379   -9.9093 C.2       7 UNK         0.5018 
     48 O          31.3397    0.4065   -9.9638 O.2       7 UNK        -0.5186 
     49 N          29.8496    1.9268   -9.2062 N.am      8 UNK        -0.4240 
     50 CA         30.7635    2.7317   -8.3860 C.3       8 UNK         0.0235 
     51 CB         29.9740    3.8531   -7.6941 C.3       8 UNK        -0.2000 
     52 C          31.9600    3.3100   -9.1624 C.2       8 UNK         0.4941 
     53 O          33.0378    3.4518   -8.5873 O.2       8 UNK        -0.5273 
     54 N          31.7696    3.5820  -10.4611 N.am      9 UNK        -0.4262 
     55 CA         32.8232    4.0015  -11.3886 C.3       9 UNK         0.0264 
     56 CB         32.1802    4.4635  -12.7065 C.3       9 UNK        -0.1955 
     57 C          33.8824    2.9143  -11.6595 C.2       9 UNK         0.5031 
     58 O          35.0142    3.2626  -11.9994 O.2       9 UNK        -0.5390 
     59 N          33.5097    1.6344  -11.5131 N.am      10 UNK        -0.4204 
     60 CA         34.4100    0.4895  -11.6476 C.3       10 UNK         0.0237 
     61 CB         33.6641   -0.6849  -12.3043 C.3       10 UNK        -0.1985 
     62 C          34.9766    0.0788  -10.2817 C.2       10 UNK         0.4970 
     63 O          36.1832   -0.1444  -10.1752 O.2       10 UNK        -0.4914 
     64 N          34.1030   -0.0192   -9.2704 N.am      11 UNK        -0.4285 
     65 CA         34.4636   -0.4058   -7.8982 C.3       11 UNK         0.1007 
     66 C          35.2950    0.6532   -7.1206 C.2       11 UNK         0.5703 
     67 N          35.1848    1.9423   -7.4147 N.am      11 UNK        -0.7361 
     68 O          36.0684    0.2926   -6.2364 O.2       11 UNK        -0.4986 
     69 C69        33.2211   -0.8436   -7.0843 C.3       12 UNK        -0.0947 
     70 S70        32.5294   -2.4240   -7.6798 S.3       12 UNK        -0.2240 
     71 C71        30.7366   -2.1676   -7.4903 C.3       12 UNK         0.0194 
     72 H72        26.8164   -7.7641    1.3567 H         1 UNK         0.0906 
     73 H73        25.1116   -7.3041    1.3310 H         1 UNK         0.0906 
     74 H74        25.9610   -7.6302   -0.1810 H         1 UNK         0.0906 
     75 H75        26.4575   -5.7455   -1.2836 H         1 UNK         0.3140 
     76 H76        27.7722   -3.5056   -0.0652 H         1 UNK         0.1085 
     77 H77        26.5506   -3.7818   -2.8686 H         1 UNK         0.0836 
     78 H78        27.5806   -2.4827   -2.3583 H         1 UNK         0.0836 
     79 H79        31.1079   -3.8690   -2.6726 H         1 UNK         0.0731 
     80 H80        30.1580   -2.8444   -1.6279 H         1 UNK         0.0731 
     81 H81        30.7226   -3.7082   -5.2397 H         1 UNK         0.1312 
     82 H82        29.9020    0.2745   -6.6042 H         1 UNK         0.1406 
     83 H83        29.4111   -0.7126   -2.4634 H         1 UNK         0.1631 
     84 H84        29.9544    2.0406   -4.5736 H         1 UNK         0.0717 
     85 H85        29.0805    1.5400   -3.1469 H         1 UNK         0.0717 
     86 H86        26.8391    0.3488   -3.2586 H         1 UNK         0.0934 
     87 H87        25.5524    1.3115   -3.9216 H         1 UNK         0.0934 
     88 H88        26.8022   -1.1504   -5.2504 H         1 UNK         0.0739 
     89 H89        24.5654   -0.8968   -3.4713 H         1 UNK         0.3093 
     90 H90        22.4881   -3.2147   -4.6244 H         1 UNK         0.0818 
     91 H91        24.4359   -4.6460   -2.7493 H         1 UNK         0.0819 
     92 H92        22.7536   -5.0704   -3.0286 H         1 UNK         0.0819 
     93 H93        23.9225   -5.2185   -4.3273 H         1 UNK         0.0819 
     94 H94        23.3330   -2.6042   -1.8693 H         1 UNK         0.3041 
     95 H95        21.6797    0.4910   -1.7878 H         1 UNK         0.0784 
     96 H96        19.6060   -0.8984   -1.5939 H         1 UNK         0.0793 
     97 H97        20.4528   -2.0381   -0.5572 H         1 UNK         0.0793 
     98 H98        20.1744   -0.3815   -0.0162 H         1 UNK         0.0793 
     99 H99        22.5761   -1.1252    0.3635 H         1 UNK         0.3024 
    100 H100       25.6546    0.3378    0.6154 H         1 UNK         0.1171 
    101 H101       25.1501   -1.0244    2.6081 H         1 UNK         0.0786 
    102 H102       23.7104   -0.1519    2.1248 H         1 UNK         0.0786 
    103 H103       23.8597   -1.8744    1.7744 H         1 UNK         0.0786 
    104 H104       27.0140   -1.3649    0.1571 H         1 UNK         0.2977 
    105 H105       27.0662   -0.3983   -7.3453 H         1 UNK         0.3127 
    106 H106       25.0294    1.1653   -8.7067 H         1 UNK         0.0770 
    107 H107       25.5333   -1.7360   -9.5841 H         1 UNK         0.0814 
    108 H108       24.7222   -0.5193  -10.5638 H         1 UNK         0.0814 
    109 H109       24.0069   -1.0441   -9.0495 H         1 UNK         0.0814 
    110 H110       27.6963   -1.0777   -9.5967 H         1 UNK         0.2983 
    111 H111       28.7853    0.7872  -11.5072 H         1 UNK         0.0947 
    112 H112       30.3598   -1.0521  -11.9827 H         1 UNK         0.0806 
    113 H113       28.7258   -1.6762  -11.8800 H         1 UNK         0.0806 
    114 H114       29.8488   -1.9184  -10.5419 H         1 UNK         0.0806 
    115 H115       28.8761    2.2172   -9.2443 H         1 UNK         0.3000 
    116 H116       31.1725    2.0767   -7.6146 H         1 UNK         0.0850 
    117 H117       30.6232    4.4480   -7.0499 H         1 UNK         0.0810 
    118 H118       29.1794    3.4502   -7.0665 H         1 UNK         0.0810 
    119 H119       29.5186    4.5315   -8.4165 H         1 UNK         0.0810 
    120 H120       30.8462    3.4483  -10.8468 H         1 UNK         0.3040 
    121 H121       33.3397    4.8544  -10.9428 H         1 UNK         0.0766 
    122 H122       31.4895    5.2911  -12.5436 H         1 UNK         0.0812 
    123 H123       31.6313    3.6566  -13.1939 H         1 UNK         0.0812 
    124 H124       32.9388    4.8115  -13.4092 H         1 UNK         0.0812 
    125 H125       32.5777    1.4301  -11.1692 H         1 UNK         0.3205 
    126 H126       35.2490    0.7528  -12.2956 H         1 UNK         0.0754 
    127 H127       34.3335   -1.5325  -12.4565 H         1 UNK         0.0769 
    128 H128       33.2674   -0.4058  -13.2806 H         1 UNK         0.0769 
    129 H129       32.8324   -1.0356  -11.6927 H         1 UNK         0.0769 
    130 H130       33.1155    0.1424   -9.4482 H         1 UNK         0.2981 
    131 H131       35.1164   -1.2776   -7.9795 H         1 UNK         0.0541 
    132 H132       35.7422    2.6057   -6.9019 H         1 UNK         0.3459 
    133 H133       34.4878    2.2823   -8.0694 H         1 UNK         0.3459 
    134 H134       32.4594   -0.0639   -7.1229 H         1 UNK         0.0612 
    135 H135       33.4670   -0.9826   -6.0297 H         1 UNK         0.0612 
    136 H136       30.2187   -3.0899   -7.7563 H         1 UNK         0.0624 
    137 H137       30.4071   -1.4172   -8.2053 H         1 UNK         0.0624 
@<TRIPOS>BOND
     1    1    2 1    
     2    1   72 1    
     3    1   73 1    
     4    1   74 1    
     5    2    3 2    
     6    2    4 am   BACKBONE|DICT|INTERRES
     7    4    5 1    
     8    4   75 1    
     9    5    6 1    
    10    5   35 1    
    11    5   76 1    
    12    6    7 1    
    13    6   77 1    
    14    6   78 1    
    15    7    8 1    
    16    8    9 1    
    17    8   79 1    
    18    8   80 1    
    19    9   10 ar   
    20    9   14 ar   
    21   10   11 ar   
    22   10   81 1    
    23   11   12 ar   
    24   11   71 1    
    25   12   13 ar   
    26   12   82 1    
    27   13   14 ar   
    28   13   15 1    
    29   14   83 1    
    30   15   16 1    
    31   15   84 1    
    32   15   85 1    
    33   16   17 1    
    34   17   18 1    
    35   17   86 1    
    36   17   87 1    
    37   18   19 1    
    38   18   37 1    
    39   18   88 1    
    40   19   20 am   BACKBONE|DICT|INTERRES
    41   19   89 1    
    42   20   21 2    
    43   20   22 1    
    44   22   23 1    
    45   22   24 1    
    46   22   90 1    
    47   23   91 1    
    48   23   92 1    
    49   23   93 1    
    50   24   25 am   BACKBONE|DICT|INTERRES
    51   24   94 1    
    52   25   26 2    
    53   25   27 1    
    54   27   28 1    
    55   27   29 1    
    56   27   95 1    
    57   28   96 1    
    58   28   97 1    
    59   28   98 1    
    60   29   30 am   BACKBONE|DICT|INTERRES
    61   29   99 1    
    62   30   31 2    
    63   30   32 1    
    64   32   33 1    
    65   32   34 1    
    66   32  100 1    
    67   33  101 1    
    68   33  102 1    
    69   33  103 1    
    70   34   35 am   BACKBONE|DICT|INTERRES
    71   34  104 1    
    72   35   36 2    
    73   37   38 2    
    74   37   39 am   BACKBONE|DICT|INTERRES
    75   39   40 1    
    76   39  105 1    
    77   40   41 1    
    78   40   42 1    
    79   40  106 1    
    80   41  107 1    
    81   41  108 1    
    82   41  109 1    
    83   42   43 2    
    84   42   44 am   BACKBONE|DICT|INTERRES
    85   44   45 1    
    86   44  110 1    
    87   45   46 1    
    88   45   47 1    
    89   45  111 1    
    90   46  112 1    
    91   46  113 1    
    92   46  114 1    
    93   47   48 2    
    94   47   49 am   BACKBONE|DICT|INTERRES
    95   49   50 1    
    96   49  115 1    
    97   50   51 1    
    98   50   52 1    
    99   50  116 1    
   100   51  117 1    
   101   51  118 1    
   102   51  119 1    
   103   52   53 2    
   104   52   54 am   BACKBONE|DICT|INTERRES
   105   54   55 1    
   106   54  120 1    
   107   55   56 1    
   108   55   57 1    
   109   55  121 1    
   110   56  122 1    
   111   56  123 1    
   112   56  124 1    
   113   57   58 2    
   114   57   59 am   BACKBONE|DICT|INTERRES
   115   59   60 1    
   116   59  125 1    
   117   60   61 1    
   118   60   62 1    
   119   60  126 1    
   120   61  127 1    
   121   61  128 1    
   122   61  129 1    
   123   62   63 2    
   124   62   64 am   BACKBONE|DICT|INTERRES
   125   64   65 1    
   126   64  130 1    
   127   65   66 1    
   128   65   69 1    
   129   65  131 1    
   130   66   67 am   BACKBONE|DICT|INTERRES
   131   66   68 2    
   132   67  132 1    
   133   67  133 1    
   134   69   70 1    
   135   69  134 1    
   136   69  135 1    
   137   70   71 1    
   138   71  136 1    
   139   71  137 1    
@<TRIPOS>SUBSTRUCTURE
     1 UNK         1 GROUP             0       ****    0 ROOT    
