@<TRIPOS>MOLECULE
3R137
137   139    1
SMALL
USER_CHARGES


@<TRIPOS>ATOM
      1 CA         27.7679    0.4438    2.9907 C.3       0 UNK        -0.2020 
      2 C          27.7169   -0.0302    1.5459 C.2       0 UNK         0.4855 
      3 O          27.1237    0.6421    0.7018 O.2       0 UNK        -0.5197 
      4 N          28.3418   -1.1773    1.2527 N.am      1 UNK        -0.4892 
      5 CA         28.3562   -1.8094   -0.0702 C.3       1 UNK         0.0835 
      6 C6         29.4194   -2.9339   -0.1513 C.3       12 UNK        -0.0855 
      7 S7         31.1265   -2.2859   -0.1868 S.3       12 UNK        -0.2931 
      8 C8         31.2950   -1.6713   -1.8990 C.3       12 UNK         0.0378 
      9 C9         31.3486   -2.7904   -2.9308 C.ar      12 UNK        -0.0802 
     10 C10        32.5782   -3.2932   -3.3657 C.ar      12 UNK        -0.0944 
     11 C11        32.6314   -4.2893   -4.3464 C.ar      12 UNK        -0.0787 
     12 C12        31.4419   -4.8064   -4.8707 C.ar      12 UNK        -0.0862 
     13 C13        30.2065   -4.3194   -4.4348 C.ar      12 UNK        -0.0733 
     14 C14        30.1693   -3.3012   -3.4792 C.ar      12 UNK        -0.0832 
     15 C15        28.9073   -4.8974   -4.9790 C.3       12 UNK         0.0240 
     16 S16        28.3798   -4.0942   -6.5250 S.3       12 UNK        -0.2522 
     17 C17        28.2675   -2.3472   -6.0208 C.3       12 UNK        -0.0967 
     18 CA         27.4747   -1.5109   -7.0486 C.3       5 UNK         0.0660 
     19 N          26.0369   -1.7825   -6.9971 N.am      5 UNK        -0.4015 
     20 C          25.1495   -1.3664   -7.9105 C.2       4 UNK         0.4946 
     21 O          25.4479   -0.7326   -8.9227 O.2       4 UNK        -0.5353 
     22 CA         23.6722   -1.6715   -7.6163 C.3       4 UNK         0.0277 
     23 CB         23.3372   -3.1327   -7.9568 C.3       4 UNK        -0.1981 
     24 N          23.3078   -1.3882   -6.2248 N.am      4 UNK        -0.4209 
     25 C          23.3147   -0.1625   -5.6808 C.2       3 UNK         0.4942 
     26 O          23.6022    0.8605   -6.3001 O.2       3 UNK        -0.5208 
     27 CA         22.9807   -0.0601   -4.1840 C.3       3 UNK         0.0250 
     28 CB         21.4590   -0.0035   -3.9742 C.3       3 UNK        -0.1990 
     29 N          23.5530   -1.1330   -3.3628 N.am      3 UNK        -0.4232 
     30 C          24.8613   -1.3978   -3.2488 C.2       2 UNK         0.4993 
     31 O          25.7434   -0.8382   -3.9076 O.2       2 UNK        -0.5286 
     32 CA         25.2577   -2.4914   -2.2539 C.3       2 UNK         0.0209 
     33 CB         25.3364   -3.8594   -2.9528 C.3       2 UNK        -0.1931 
     34 N          26.5635   -2.1375   -1.7061 N.am      2 UNK        -0.4546 
     35 C          26.9614   -2.3501   -0.4466 C.2       1 UNK         0.5154 
     36 O          26.2940   -2.9613    0.3922 O.2       1 UNK        -0.5181 
     37 C          27.7754   -0.0124   -6.8809 C.2       5 UNK         0.5014 
     38 O          28.6270    0.5049   -7.6035 O.2       5 UNK        -0.5248 
     39 N          27.0643    0.6603   -5.9641 N.am      6 UNK        -0.4434 
     40 CA         27.1517    2.1056   -5.7481 C.3       6 UNK         0.0363 
     41 CB         26.3368    2.4967   -4.5054 C.3       6 UNK        -0.1936 
     42 C          26.7070    2.9163   -6.9776 C.2       6 UNK         0.5081 
     43 O          27.3962    3.8648   -7.3515 O.2       6 UNK        -0.5248 
     44 N          25.5932    2.5107   -7.6053 N.am      7 UNK        -0.4718 
     45 CA         25.0687    3.1047   -8.8389 C.3       7 UNK         0.0273 
     46 CB         23.6645    2.5492   -9.1251 C.3       7 UNK        -0.1935 
     47 C          25.9934    2.8916  -10.0491 C.2       7 UNK         0.5018 
     48 O          26.1823    3.8210  -10.8348 O.2       7 UNK        -0.5186 
     49 N          26.5672    1.6859  -10.1679 N.am      8 UNK        -0.4240 
     50 CA         27.5426    1.3297  -11.2030 C.3       8 UNK         0.0235 
     51 CB         27.6612   -0.2020  -11.2709 C.3       8 UNK        -0.2000 
     52 C          28.9345    1.9542  -10.9886 C.2       8 UNK         0.4941 
     53 O          29.7166    1.9948  -11.9391 O.2       8 UNK        -0.5273 
     54 N          29.2268    2.3888   -9.7528 N.am      9 UNK        -0.4262 
     55 CA         30.5308    2.8255   -9.2387 C.3       9 UNK         0.0264 
     56 CB         31.0012    4.1243   -9.9271 C.3       9 UNK        -0.1955 
     57 C          31.5746    1.6909   -9.2883 C.2       9 UNK         0.5031 
     58 O          32.7283    1.9197   -9.6610 O.2       9 UNK        -0.5390 
     59 N          31.1379    0.4763   -8.9294 N.am      10 UNK        -0.4204 
     60 CA         31.9546   -0.7360   -8.9198 C.3       10 UNK         0.0237 
     61 CB         31.0365   -1.9663   -8.8460 C.3       10 UNK        -0.1985 
     62 C          32.9495   -0.7300   -7.7497 C.2       10 UNK         0.4970 
     63 O          32.6122   -0.2528   -6.6638 O.2       10 UNK        -0.4914 
     64 N          34.1450   -1.2782   -8.0014 N.am      11 UNK        -0.4285 
     65 CA         35.2625   -1.4096   -7.0473 C.3       11 UNK         0.1007 
     66 C          35.8914   -0.0592   -6.5808 C.2       11 UNK         0.5703 
     67 N          35.6191    1.0634   -7.2367 N.am      11 UNK        -0.7361 
     68 O          36.6726   -0.0295   -5.6324 O.2       11 UNK        -0.4986 
     69 C69        34.9382   -2.3640   -5.8608 C.3       12 UNK        -0.0947 
     70 S70        34.4609   -4.0368   -6.4134 S.3       12 UNK        -0.2240 
     71 C71        33.9729   -4.8106   -4.8397 C.3       12 UNK         0.0194 
     72 H72        26.7595    0.5164    3.3972 H         1 UNK         0.0906 
     73 H73        28.3405   -0.2344    3.6232 H         1 UNK         0.0906 
     74 H74        28.2296    1.4293    3.0462 H         1 UNK         0.0906 
     75 H75        28.8050   -1.6936    1.9870 H         1 UNK         0.3140 
     76 H76        28.6080   -1.0322   -0.7938 H         1 UNK         0.1085 
     77 H77        29.2661   -3.5826   -1.0121 H         1 UNK         0.0836 
     78 H78        29.3275   -3.5972    0.7109 H         1 UNK         0.0836 
     79 H79        30.4831   -0.9829   -2.1345 H         1 UNK         0.0731 
     80 H80        32.2079   -1.0767   -1.9598 H         1 UNK         0.0731 
     81 H81        33.4957   -2.8957   -2.9536 H         1 UNK         0.1312 
     82 H82        31.4785   -5.5827   -5.6229 H         1 UNK         0.1406 
     83 H83        29.2153   -2.9081   -3.1602 H         1 UNK         0.1631 
     84 H84        29.0294   -5.9656   -5.1640 H         1 UNK         0.0717 
     85 H85        28.1146   -4.8111   -4.2356 H         1 UNK         0.0717 
     86 H86        27.8087   -2.2764   -5.0336 H         1 UNK         0.0934 
     87 H87        29.2877   -1.9727   -5.9116 H         1 UNK         0.0934 
     88 H88        27.8208   -1.7824   -8.0486 H         1 UNK         0.0739 
     89 H89        25.7003   -2.2682   -6.1801 H         1 UNK         0.3093 
     90 H90        23.0691   -1.0254   -8.2582 H         1 UNK         0.0818 
     91 H91        22.2725   -3.3335   -7.8362 H         1 UNK         0.0819 
     92 H92        23.5914   -3.3579   -8.9936 H         1 UNK         0.0819 
     93 H93        23.8852   -3.8351   -7.3275 H         1 UNK         0.0819 
     94 H94        23.0504   -2.1721   -5.6432 H         1 UNK         0.3041 
     95 H95        23.4041    0.8798   -3.8242 H         1 UNK         0.0784 
     96 H96        21.0140    0.8003   -4.5629 H         1 UNK         0.0793 
     97 H97        20.9729   -0.9332   -4.2724 H         1 UNK         0.0793 
     98 H98        21.2087    0.1873   -2.9304 H         1 UNK         0.0793 
     99 H99        22.9006   -1.6589   -2.7984 H         1 UNK         0.3024 
    100 H100       24.5171   -2.5274   -1.4511 H         1 UNK         0.1171 
    101 H101       25.6873   -4.6344   -2.2712 H         1 UNK         0.0786 
    102 H102       24.3562   -4.1690   -3.3173 H         1 UNK         0.0786 
    103 H103       26.0095   -3.8360   -3.8099 H         1 UNK         0.0786 
    104 H104       27.1154   -1.5545   -2.3227 H         1 UNK         0.2977 
    105 H105       26.4277    0.1446   -5.3598 H         1 UNK         0.3127 
    106 H106       28.1996    2.3453   -5.5550 H         1 UNK         0.0770 
    107 H107       25.2758    2.2837   -4.6347 H         1 UNK         0.0814 
    108 H108       26.4321    3.5631   -4.2974 H         1 UNK         0.0814 
    109 H109       26.6797    1.9604   -3.6204 H         1 UNK         0.0814 
    110 H110       25.0469    1.7557   -7.1965 H         1 UNK         0.2983 
    111 H111       24.9822    4.1815   -8.6782 H         1 UNK         0.0947 
    112 H112       23.2491    2.9834  -10.0354 H         1 UNK         0.0806 
    113 H113       22.9754    2.7788   -8.3123 H         1 UNK         0.0806 
    114 H114       23.6777    1.4662   -9.2542 H         1 UNK         0.0806 
    115 H115       26.2968    0.9489   -9.5212 H         1 UNK         0.3000 
    116 H116       27.1680    1.6878  -12.1644 H         1 UNK         0.0850 
    117 H117       26.6995   -0.6652  -11.4924 H         1 UNK         0.0810 
    118 H118       28.0236   -0.6180  -10.3300 H         1 UNK         0.0810 
    119 H119       28.3567   -0.5086  -12.0533 H         1 UNK         0.0810 
    120 H120       28.5160    2.2577   -9.0433 H         1 UNK         0.3040 
    121 H121       30.3768    3.0497   -8.1820 H         1 UNK         0.0766 
    122 H122       30.2400    4.9020   -9.8664 H         1 UNK         0.0812 
    123 H123       31.2370    3.9653  -10.9796 H         1 UNK         0.0812 
    124 H124       31.9013    4.5130   -9.4494 H         1 UNK         0.0812 
    125 H125       30.1986    0.4057   -8.5405 H         1 UNK         0.3205 
    126 H126       32.5093   -0.7757   -9.8598 H         1 UNK         0.0754 
    127 H127       30.4692   -1.9852   -7.9169 H         1 UNK         0.0769 
    128 H128       31.6151   -2.8900   -8.8894 H         1 UNK         0.0769 
    129 H129       30.3272   -1.9863   -9.6737 H         1 UNK         0.0769 
    130 H130       34.3277   -1.6385   -8.9265 H         1 UNK         0.2981 
    131 H131       36.0618   -1.8823   -7.6189 H         1 UNK         0.0541 
    132 H132       36.0431    1.9257   -6.9337 H         1 UNK         0.3459 
    133 H133       34.9783    1.0616   -8.0152 H         1 UNK         0.3459 
    134 H134       34.1407   -1.9442   -5.2476 H         1 UNK         0.0612 
    135 H135       35.8037   -2.4749   -5.2055 H         1 UNK         0.0612 
    136 H136       34.7523   -4.6450   -4.0942 H         1 UNK         0.0624 
    137 H137       33.9128   -5.8903   -4.9837 H         1 UNK         0.0624 
@<TRIPOS>BOND
     1    1    2 1    
     2    1   72 1    
     3    1   73 1    
     4    1   74 1    
     5    2    3 2    
     6    2    4 am   BACKBONE|DICT|INTERRES
     7    4    5 1    
     8    4   75 1    
     9    5    6 1    
    10    5   35 1    
    11    5   76 1    
    12    6    7 1    
    13    6   77 1    
    14    6   78 1    
    15    7    8 1    
    16    8    9 1    
    17    8   79 1    
    18    8   80 1    
    19    9   10 ar   
    20    9   14 ar   
    21   10   11 ar   
    22   10   81 1    
    23   11   12 ar   
    24   11   71 1    
    25   12   13 ar   
    26   12   82 1    
    27   13   14 ar   
    28   13   15 1    
    29   14   83 1    
    30   15   16 1    
    31   15   84 1    
    32   15   85 1    
    33   16   17 1    
    34   17   18 1    
    35   17   86 1    
    36   17   87 1    
    37   18   19 1    
    38   18   37 1    
    39   18   88 1    
    40   19   20 am   BACKBONE|DICT|INTERRES
    41   19   89 1    
    42   20   21 2    
    43   20   22 1    
    44   22   23 1    
    45   22   24 1    
    46   22   90 1    
    47   23   91 1    
    48   23   92 1    
    49   23   93 1    
    50   24   25 am   BACKBONE|DICT|INTERRES
    51   24   94 1    
    52   25   26 2    
    53   25   27 1    
    54   27   28 1    
    55   27   29 1    
    56   27   95 1    
    57   28   96 1    
    58   28   97 1    
    59   28   98 1    
    60   29   30 am   BACKBONE|DICT|INTERRES
    61   29   99 1    
    62   30   31 2    
    63   30   32 1    
    64   32   33 1    
    65   32   34 1    
    66   32  100 1    
    67   33  101 1    
    68   33  102 1    
    69   33  103 1    
    70   34   35 am   BACKBONE|DICT|INTERRES
    71   34  104 1    
    72   35   36 2    
    73   37   38 2    
    74   37   39 am   BACKBONE|DICT|INTERRES
    75   39   40 1    
    76   39  105 1    
    77   40   41 1    
    78   40   42 1    
    79   40  106 1    
    80   41  107 1    
    81   41  108 1    
    82   41  109 1    
    83   42   43 2    
    84   42   44 am   BACKBONE|DICT|INTERRES
    85   44   45 1    
    86   44  110 1    
    87   45   46 1    
    88   45   47 1    
    89   45  111 1    
    90   46  112 1    
    91   46  113 1    
    92   46  114 1    
    93   47   48 2    
    94   47   49 am   BACKBONE|DICT|INTERRES
    95   49   50 1    
    96   49  115 1    
    97   50   51 1    
    98   50   52 1    
    99   50  116 1    
   100   51  117 1    
   101   51  118 1    
   102   51  119 1    
   103   52   53 2    
   104   52   54 am   BACKBONE|DICT|INTERRES
   105   54   55 1    
   106   54  120 1    
   107   55   56 1    
   108   55   57 1    
   109   55  121 1    
   110   56  122 1    
   111   56  123 1    
   112   56  124 1    
   113   57   58 2    
   114   57   59 am   BACKBONE|DICT|INTERRES
   115   59   60 1    
   116   59  125 1    
   117   60   61 1    
   118   60   62 1    
   119   60  126 1    
   120   61  127 1    
   121   61  128 1    
   122   61  129 1    
   123   62   63 2    
   124   62   64 am   BACKBONE|DICT|INTERRES
   125   64   65 1    
   126   64  130 1    
   127   65   66 1    
   128   65   69 1    
   129   65  131 1    
   130   66   67 am   BACKBONE|DICT|INTERRES
   131   66   68 2    
   132   67  132 1    
   133   67  133 1    
   134   69   70 1    
   135   69  134 1    
   136   69  135 1    
   137   70   71 1    
   138   71  136 1    
   139   71  137 1    
@<TRIPOS>SUBSTRUCTURE
     1 UNK         1 GROUP             0       ****    0 ROOT    
