@<TRIPOS>MOLECULE
3R137
137   139    1
SMALL
USER_CHARGES


@<TRIPOS>ATOM
      1 CA         27.1182   -3.0070    3.4861 C.3       0 UNK        -0.2020 
      2 C          27.7063   -2.2703    2.2926 C.2       0 UNK         0.4855 
      3 O          28.4164   -1.2816    2.4725 O.2       0 UNK        -0.5197 
      4 N          27.4164   -2.7437    1.0738 N.am      1 UNK        -0.4892 
      5 CA         27.9143   -2.1757   -0.1878 C.3       1 UNK         0.0835 
      6 C6         27.7105   -3.1416   -1.3842 C.3       12 UNK        -0.0855 
      7 S7         28.3456   -4.8263   -1.0965 S.3       12 UNK        -0.2931 
      8 C8         30.0961   -4.6566   -1.5689 C.3       12 UNK         0.0378 
      9 C9         30.2962   -4.2748   -3.0312 C.ar      12 UNK        -0.0802 
     10 C10        31.0820   -3.1682   -3.3591 C.ar      12 UNK        -0.0944 
     11 C11        31.3391   -2.8344   -4.6914 C.ar      12 UNK        -0.0787 
     12 C12        30.7705   -3.6184   -5.7085 C.ar      12 UNK        -0.0862 
     13 C13        29.9715   -4.7265   -5.3968 C.ar      12 UNK        -0.0733 
     14 C14        29.7442   -5.0486   -4.0552 C.ar      12 UNK        -0.0832 
     15 C15        29.4061   -5.6359   -6.4872 C.3       12 UNK         0.0240 
     16 S16        28.6239   -4.7627   -7.8841 S.3       12 UNK        -0.2522 
     17 C17        27.2015   -3.9421   -7.0857 C.3       12 UNK        -0.0967 
     18 CA         26.8579   -2.5806   -7.7422 C.3       5 UNK         0.0660 
     19 N          25.5486   -2.0840   -7.3015 N.am      5 UNK        -0.4015 
     20 C          24.9781   -0.9365   -7.6997 C.2       4 UNK         0.4946 
     21 O          25.4546   -0.2041   -8.5652 O.2       4 UNK        -0.5353 
     22 CA         23.6854   -0.4866   -6.9965 C.3       4 UNK         0.0277 
     23 CB         22.4689   -0.7749   -7.8907 C.3       4 UNK        -0.1981 
     24 N          23.4486   -1.0489   -5.6609 N.am      4 UNK        -0.4209 
     25 C          24.2778   -0.9857   -4.6089 C.2       3 UNK         0.4942 
     26 O          25.4324   -0.5527   -4.6591 O.2       3 UNK        -0.5208 
     27 CA         23.7266   -1.5779   -3.3017 C.3       3 UNK         0.0250 
     28 CB         23.8710   -3.1091   -3.3124 C.3       3 UNK        -0.1990 
     29 N          24.3970   -1.0542   -2.1121 N.am      3 UNK        -0.4232 
     30 C          24.3639    0.2123   -1.6718 C.2       2 UNK         0.4993 
     31 O          23.7011    1.1046   -2.2028 O.2       2 UNK        -0.5286 
     32 CA         25.1825    0.5338   -0.4035 C.3       2 UNK         0.0209 
     33 CB         24.2511    0.8741    0.7727 C.3       2 UNK        -0.1931 
     34 N          26.0580   -0.5742   -0.0061 N.am      2 UNK        -0.4546 
     35 C          27.2686   -0.8161   -0.5292 C.2       1 UNK         0.5154 
     36 O          27.8478   -0.0430   -1.2912 O.2       1 UNK        -0.5181 
     37 C          27.9828   -1.5449   -7.5242 C.2       5 UNK         0.5014 
     38 O          28.7932   -1.3342   -8.4281 O.2       5 UNK        -0.5248 
     39 N          27.9761   -0.8780   -6.3599 N.am      6 UNK        -0.4434 
     40 CA         28.9572    0.1467   -6.0032 C.3       6 UNK         0.0363 
     41 CB         28.8153    0.4930   -4.5144 C.3       6 UNK        -0.1936 
     42 C          28.8643    1.4076   -6.8780 C.2       6 UNK         0.5081 
     43 O          29.8880    2.0483   -7.1160 O.2       6 UNK        -0.5248 
     44 N          27.6567    1.7285   -7.3604 N.am      7 UNK        -0.4718 
     45 CA         27.4154    2.8141   -8.3088 C.3       7 UNK         0.0273 
     46 CB         25.9548    3.2824   -8.2022 C.3       7 UNK        -0.1935 
     47 C          27.7560    2.3888   -9.7449 C.2       7 UNK         0.5018 
     48 O          28.4323    3.1386  -10.4480 O.2       7 UNK        -0.5186 
     49 N          27.2990    1.1936  -10.1471 N.am      8 UNK        -0.4240 
     50 CA         27.4754    0.6242  -11.4859 C.3       8 UNK         0.0235 
     51 CB         26.6472   -0.6647  -11.6129 C.3       8 UNK        -0.2000 
     52 C          28.9438    0.3623  -11.8523 C.2       8 UNK         0.4941 
     53 O          29.3643    0.7292  -12.9502 O.2       8 UNK        -0.5273 
     54 N          29.7012   -0.2439  -10.9277 N.am      9 UNK        -0.4262 
     55 CA         31.1393   -0.4859  -11.0797 C.3       9 UNK         0.0264 
     56 CB         31.5257   -1.7327  -10.2682 C.3       9 UNK        -0.1955 
     57 C          31.9981    0.7277  -10.6746 C.2       9 UNK         0.5031 
     58 O          33.2076    0.7028  -10.9051 O.2       9 UNK        -0.5390 
     59 N          31.3719    1.7516  -10.0725 N.am      10 UNK        -0.4204 
     60 CA         31.9509    3.0080   -9.5757 C.3       10 UNK         0.0237 
     61 CB         32.5253    3.8467  -10.7372 C.3       10 UNK        -0.1985 
     62 C          32.9556    2.8363   -8.4167 C.2       10 UNK         0.4970 
     63 O          33.7096    3.7672   -8.1269 O.2       10 UNK        -0.4914 
     64 N          32.9434    1.6679   -7.7655 N.am      11 UNK        -0.4285 
     65 CA         33.7622    1.3360   -6.5935 C.3       11 UNK         0.1007 
     66 C          33.2129    1.8800   -5.2437 C.2       11 UNK         0.5703 
     67 N          31.9930    2.3986   -5.1762 N.am      11 UNK        -0.7361 
     68 O          33.9194    1.8474   -4.2391 O.2       11 UNK        -0.4986 
     69 C69        34.0926   -0.1796   -6.5367 C.3       12 UNK        -0.0947 
     70 S70        32.6481   -1.2864   -6.6952 S.3       12 UNK        -0.2240 
     71 C71        32.2715   -1.6472   -4.9487 C.3       12 UNK         0.0194 
     72 H72        26.5018   -3.8516    3.1815 H         1 UNK         0.0906 
     73 H73        27.9166   -3.3834    4.1238 H         1 UNK         0.0906 
     74 H74        26.4998   -2.3323    4.0770 H         1 UNK         0.0906 
     75 H75        26.8642   -3.5852    0.9836 H         1 UNK         0.3140 
     76 H76        28.9858   -1.9972   -0.0738 H         1 UNK         0.1085 
     77 H77        26.6489   -3.2447   -1.6115 H         1 UNK         0.0836 
     78 H78        28.1659   -2.7347   -2.2891 H         1 UNK         0.0836 
     79 H79        30.5664   -3.9283   -0.9066 H         1 UNK         0.0731 
     80 H80        30.6007   -5.6058   -1.3848 H         1 UNK         0.0731 
     81 H81        31.5237   -2.5749   -2.5698 H         1 UNK         0.1312 
     82 H82        30.9565   -3.3902   -6.7480 H         1 UNK         0.1406 
     83 H83        29.1494   -5.9156   -3.8006 H         1 UNK         0.1631 
     84 H84        30.2201   -6.2470   -6.8774 H         1 UNK         0.0717 
     85 H85        28.6762   -6.3310   -6.0703 H         1 UNK         0.0717 
     86 H86        26.3515   -4.6216   -7.1660 H         1 UNK         0.0934 
     87 H87        27.3894   -3.8194   -6.0173 H         1 UNK         0.0934 
     88 H88        26.7735   -2.7386   -8.8192 H         1 UNK         0.0739 
     89 H89        25.0813   -2.6165   -6.5839 H         1 UNK         0.3093 
     90 H90        23.7636    0.5954   -6.8714 H         1 UNK         0.0818 
     91 H91        21.5579   -0.3427   -7.4763 H         1 UNK         0.0819 
     92 H92        22.6031   -0.3448   -8.8846 H         1 UNK         0.0819 
     93 H93        22.3064   -1.8458   -8.0191 H         1 UNK         0.0819 
     94 H94        22.5356   -1.4564   -5.5159 H         1 UNK         0.3041 
     95 H95        22.6684   -1.3208   -3.2245 H         1 UNK         0.0784 
     96 H96        23.3215   -3.5518   -4.1441 H         1 UNK         0.0793 
     97 H97        24.9123   -3.4169   -3.4117 H         1 UNK         0.0793 
     98 H98        23.4759   -3.5526   -2.3984 H         1 UNK         0.0793 
     99 H99        24.9773   -1.7029   -1.6062 H         1 UNK         0.3024 
    100 H100       25.7922    1.4126   -0.6266 H         1 UNK         0.1171 
    101 H101       24.8195    1.1448    1.6627 H         1 UNK         0.0786 
    102 H102       23.6093    1.7223    0.5304 H         1 UNK         0.0786 
    103 H103       23.6011    0.0369    1.0301 H         1 UNK         0.0786 
    104 H104       25.6778   -1.2501    0.6414 H         1 UNK         0.2977 
    105 H105       27.2220   -1.0351   -5.6991 H         1 UNK         0.3127 
    106 H106       29.9487   -0.2785   -6.1592 H         1 UNK         0.0770 
    107 H107       27.8248    0.8858   -4.2816 H         1 UNK         0.0814 
    108 H108       29.5440    1.2458   -4.2138 H         1 UNK         0.0814 
    109 H109       28.9822   -0.3839   -3.8884 H         1 UNK         0.0814 
    110 H110       26.8783    1.1181   -7.1536 H         1 UNK         0.2983 
    111 H111       28.0584    3.6586   -8.0492 H         1 UNK         0.0947 
    112 H112       25.7625    4.1112   -8.8849 H         1 UNK         0.0806 
    113 H113       25.7242    3.6324   -7.1960 H         1 UNK         0.0806 
    114 H114       25.2501    2.4880   -8.4497 H         1 UNK         0.0806 
    115 H115       26.7184    0.6564   -9.5036 H         1 UNK         0.3000 
    116 H116       27.0833    1.3501  -12.2014 H         1 UNK         0.0850 
    117 H117       26.7438   -1.0960  -12.6101 H         1 UNK         0.0810 
    118 H118       25.5875   -0.4728  -11.4433 H         1 UNK         0.0810 
    119 H119       26.9676   -1.4212  -10.8960 H         1 UNK         0.0810 
    120 H120       29.2779   -0.5504  -10.0515 H         1 UNK         0.3040 
    121 H121       31.3584   -0.6942  -12.1292 H         1 UNK         0.0766 
    122 H122       30.9912   -2.6151  -10.6201 H         1 UNK         0.0812 
    123 H123       31.2966   -1.6090   -9.2111 H         1 UNK         0.0812 
    124 H124       32.5927   -1.9443  -10.3496 H         1 UNK         0.0812 
    125 H125       30.3730    1.6663   -9.9421 H         1 UNK         0.3205 
    126 H126       31.1139    3.5671   -9.1548 H         1 UNK         0.0754 
    127 H127       32.8109    4.8433  -10.3988 H         1 UNK         0.0769 
    128 H128       31.7902    3.9757  -11.5318 H         1 UNK         0.0769 
    129 H129       33.4125    3.3847  -11.1711 H         1 UNK         0.0769 
    130 H130       32.2660    0.9714   -8.0369 H         1 UNK         0.2981 
    131 H131       34.7198    1.8444   -6.7208 H         1 UNK         0.0541 
    132 H132       31.3779    2.3913   -5.9847 H         1 UNK         0.3459 
    133 H133       31.6654    2.7658   -4.2981 H         1 UNK         0.3459 
    134 H134       34.6580   -0.4275   -5.6369 H         1 UNK         0.0612 
    135 H135       34.7596   -0.4207   -7.3655 H         1 UNK         0.0612 
    136 H136       31.8390   -0.7535   -4.4972 H         1 UNK         0.0624 
    137 H137       33.2102   -1.8379   -4.4268 H         1 UNK         0.0624 
@<TRIPOS>BOND
     1    1    2 1    
     2    1   72 1    
     3    1   73 1    
     4    1   74 1    
     5    2    3 2    
     6    2    4 am   BACKBONE|DICT|INTERRES
     7    4    5 1    
     8    4   75 1    
     9    5    6 1    
    10    5   35 1    
    11    5   76 1    
    12    6    7 1    
    13    6   77 1    
    14    6   78 1    
    15    7    8 1    
    16    8    9 1    
    17    8   79 1    
    18    8   80 1    
    19    9   10 ar   
    20    9   14 ar   
    21   10   11 ar   
    22   10   81 1    
    23   11   12 ar   
    24   11   71 1    
    25   12   13 ar   
    26   12   82 1    
    27   13   14 ar   
    28   13   15 1    
    29   14   83 1    
    30   15   16 1    
    31   15   84 1    
    32   15   85 1    
    33   16   17 1    
    34   17   18 1    
    35   17   86 1    
    36   17   87 1    
    37   18   19 1    
    38   18   37 1    
    39   18   88 1    
    40   19   20 am   BACKBONE|DICT|INTERRES
    41   19   89 1    
    42   20   21 2    
    43   20   22 1    
    44   22   23 1    
    45   22   24 1    
    46   22   90 1    
    47   23   91 1    
    48   23   92 1    
    49   23   93 1    
    50   24   25 am   BACKBONE|DICT|INTERRES
    51   24   94 1    
    52   25   26 2    
    53   25   27 1    
    54   27   28 1    
    55   27   29 1    
    56   27   95 1    
    57   28   96 1    
    58   28   97 1    
    59   28   98 1    
    60   29   30 am   BACKBONE|DICT|INTERRES
    61   29   99 1    
    62   30   31 2    
    63   30   32 1    
    64   32   33 1    
    65   32   34 1    
    66   32  100 1    
    67   33  101 1    
    68   33  102 1    
    69   33  103 1    
    70   34   35 am   BACKBONE|DICT|INTERRES
    71   34  104 1    
    72   35   36 2    
    73   37   38 2    
    74   37   39 am   BACKBONE|DICT|INTERRES
    75   39   40 1    
    76   39  105 1    
    77   40   41 1    
    78   40   42 1    
    79   40  106 1    
    80   41  107 1    
    81   41  108 1    
    82   41  109 1    
    83   42   43 2    
    84   42   44 am   BACKBONE|DICT|INTERRES
    85   44   45 1    
    86   44  110 1    
    87   45   46 1    
    88   45   47 1    
    89   45  111 1    
    90   46  112 1    
    91   46  113 1    
    92   46  114 1    
    93   47   48 2    
    94   47   49 am   BACKBONE|DICT|INTERRES
    95   49   50 1    
    96   49  115 1    
    97   50   51 1    
    98   50   52 1    
    99   50  116 1    
   100   51  117 1    
   101   51  118 1    
   102   51  119 1    
   103   52   53 2    
   104   52   54 am   BACKBONE|DICT|INTERRES
   105   54   55 1    
   106   54  120 1    
   107   55   56 1    
   108   55   57 1    
   109   55  121 1    
   110   56  122 1    
   111   56  123 1    
   112   56  124 1    
   113   57   58 2    
   114   57   59 am   BACKBONE|DICT|INTERRES
   115   59   60 1    
   116   59  125 1    
   117   60   61 1    
   118   60   62 1    
   119   60  126 1    
   120   61  127 1    
   121   61  128 1    
   122   61  129 1    
   123   62   63 2    
   124   62   64 am   BACKBONE|DICT|INTERRES
   125   64   65 1    
   126   64  130 1    
   127   65   66 1    
   128   65   69 1    
   129   65  131 1    
   130   66   67 am   BACKBONE|DICT|INTERRES
   131   66   68 2    
   132   67  132 1    
   133   67  133 1    
   134   69   70 1    
   135   69  134 1    
   136   69  135 1    
   137   70   71 1    
   138   71  136 1    
   139   71  137 1    
@<TRIPOS>SUBSTRUCTURE
     1 UNK         1 GROUP             0       ****    0 ROOT    
