@<TRIPOS>MOLECULE
3R137
137   139    1
SMALL
USER_CHARGES


@<TRIPOS>ATOM
      1 CA         28.4630   -0.7434    3.2721 C.3       0 UNK        -0.2020 
      2 C          28.8295   -0.1030    1.9419 C.2       0 UNK         0.4855 
      3 O          29.0439    1.1078    1.8833 O.2       0 UNK        -0.5197 
      4 N          28.9023   -0.9057    0.8721 N.am      1 UNK        -0.4892 
      5 CA         29.2158   -0.4620   -0.4935 C.3       1 UNK         0.0835 
      6 C6         29.7078   -1.6409   -1.3694 C.3       12 UNK        -0.0855 
      7 S7         28.4914   -2.9969   -1.5264 S.3       12 UNK        -0.2931 
      8 C8         29.5680   -4.3923   -1.9794 C.3       12 UNK         0.0378 
      9 C9         29.8498   -4.4329   -3.4747 C.ar      12 UNK        -0.0802 
     10 C10        31.0275   -3.8880   -3.9986 C.ar      12 UNK        -0.0944 
     11 C11        31.3036   -3.9810   -5.3676 C.ar      12 UNK        -0.0787 
     12 C12        30.3812   -4.6056   -6.2160 C.ar      12 UNK        -0.0862 
     13 C13        29.2049   -5.1611   -5.7016 C.ar      12 UNK        -0.0733 
     14 C14        28.9438   -5.0643   -4.3319 C.ar      12 UNK        -0.0832 
     15 C15        28.2567   -5.9483   -6.5970 C.3       12 UNK         0.0240 
     16 S16        26.6422   -5.1292   -6.8050 S.3       12 UNK        -0.2522 
     17 C17        26.7185   -4.5034   -8.5237 C.3       12 UNK        -0.0967 
     18 CA         26.4173   -2.9907   -8.6610 C.3       5 UNK         0.0660 
     19 N          25.1737   -2.6027   -7.9911 N.am      5 UNK        -0.4015 
     20 C          24.5674   -1.4150   -8.1228 C.2       4 UNK         0.4946 
     21 O          24.9463   -0.5310   -8.8914 O.2       4 UNK        -0.5353 
     22 CA         23.3669   -1.1529   -7.1962 C.3       4 UNK         0.0277 
     23 CB         22.0812   -1.7506   -7.7895 C.3       4 UNK        -0.1981 
     24 N          23.5704   -1.6607   -5.8325 N.am      4 UNK        -0.4209 
     25 C          24.5353   -1.2289   -5.0084 C.2       3 UNK         0.4942 
     26 O          25.3516   -0.3608   -5.3209 O.2       3 UNK        -0.5208 
     27 CA         24.6413   -1.9272   -3.6398 C.3       3 UNK         0.0250 
     28 CB         25.4327   -3.2399   -3.7696 C.3       3 UNK        -0.1990 
     29 N          25.2864   -1.0891   -2.6241 N.am      3 UNK        -0.4232 
     30 C          24.7837    0.0559   -2.1399 C.2       2 UNK         0.4993 
     31 O          23.6844    0.5056   -2.4697 O.2       2 UNK        -0.5286 
     32 CA         25.6133    0.8205   -1.0901 C.3       2 UNK         0.0209 
     33 CB         24.7725    1.1181    0.1652 C.3       2 UNK        -0.1931 
     34 N          26.8256    0.1102   -0.6711 N.am      2 UNK        -0.4546 
     35 C          28.0571    0.3188   -1.1581 C.2       1 UNK         0.5154 
     36 O          28.3016    1.0996   -2.0778 O.2       1 UNK        -0.5181 
     37 C          27.6110   -2.1257   -8.2162 C.2       5 UNK         0.5014 
     38 O          28.3977   -1.7075   -9.0649 O.2       5 UNK        -0.5248 
     39 N          27.6969   -1.8390   -6.9098 N.am      6 UNK        -0.4434 
     40 CA         28.7128   -0.9730   -6.3168 C.3       6 UNK         0.0363 
     41 CB         28.6338   -1.0341   -4.7878 C.3       6 UNK        -0.1936 
     42 C          28.6034    0.4758   -6.8012 C.2       6 UNK         0.5081 
     43 O          29.6243    1.0762   -7.1311 O.2       6 UNK        -0.5248 
     44 N          27.3709    0.9952   -6.8694 N.am      7 UNK        -0.4718 
     45 CA         27.0551    2.3163   -7.4120 C.3       7 UNK         0.0273 
     46 CB         25.5768    2.6413   -7.1462 C.3       7 UNK        -0.1935 
     47 C          27.3867    2.4352   -8.9091 C.2       7 UNK         0.5018 
     48 O          27.9509    3.4499   -9.3187 O.2       7 UNK        -0.5186 
     49 N          27.0576    1.3945   -9.6889 N.am      8 UNK        -0.4240 
     50 CA         27.3536    1.3049  -11.1207 C.3       8 UNK         0.0235 
     51 CB         26.5935    0.1183  -11.7352 C.3       8 UNK        -0.2000 
     52 C          28.8591    1.2025  -11.4197 C.2       8 UNK         0.4941 
     53 O          29.3478    1.9123  -12.2997 O.2       8 UNK        -0.5273 
     54 N          29.5663    0.3297  -10.6887 N.am      9 UNK        -0.4262 
     55 CA         31.0070    0.1010  -10.8390 C.3       9 UNK         0.0264 
     56 CB         31.3526   -1.2837  -10.2700 C.3       9 UNK        -0.1955 
     57 C          31.8849    1.1854  -10.1864 C.2       9 UNK         0.5031 
     58 O          33.0734    1.2509  -10.5043 O.2       9 UNK        -0.5390 
     59 N          31.3004    1.9949   -9.2909 N.am      10 UNK        -0.4204 
     60 CA         31.9370    3.0135   -8.4479 C.3       10 UNK         0.0237 
     61 CB         32.5534    4.1479   -9.2951 C.3       10 UNK        -0.1985 
     62 C          32.9210    2.3889   -7.4392 C.2       10 UNK         0.4970 
     63 O          34.0583    2.8481   -7.3132 O.2       10 UNK        -0.4914 
     64 N          32.4583    1.3402   -6.7477 N.am      11 UNK        -0.4285 
     65 CA         33.1926    0.6360   -5.6859 C.3       11 UNK         0.1007 
     66 C          33.3789    1.5103   -4.4155 C.2       11 UNK         0.5703 
     67 N          34.4597    1.3026   -3.6755 N.am      11 UNK        -0.7361 
     68 O          32.5407    2.3428   -4.0736 O.2       11 UNK        -0.4986 
     69 C69        32.5233   -0.7164   -5.3268 C.3       12 UNK        -0.0947 
     70 S70        32.4971   -1.8669   -6.7399 S.3       12 UNK        -0.2240 
     71 C71        32.6336   -3.4856   -5.9230 C.3       12 UNK         0.0194 
     72 H72        27.5512   -0.2948    3.6658 H         1 UNK         0.0906 
     73 H73        28.2994   -1.8167    3.1776 H         1 UNK         0.0906 
     74 H74        29.2610   -0.5850    3.9970 H         1 UNK         0.0906 
     75 H75        28.7212   -1.8957    0.9709 H         1 UNK         0.3140 
     76 H76        30.0438    0.2474   -0.4206 H         1 UNK         0.1085 
     77 H77        29.9983   -1.2950   -2.3604 H         1 UNK         0.0836 
     78 H78        30.6220   -2.0432   -0.9303 H         1 UNK         0.0836 
     79 H79        29.0760   -5.3188   -1.6793 H         1 UNK         0.0731 
     80 H80        30.4984   -4.3536   -1.4111 H         1 UNK         0.0731 
     81 H81        31.7410   -3.4161   -3.3372 H         1 UNK         0.1312 
     82 H82        30.6015   -4.6924   -7.2713 H         1 UNK         0.1406 
     83 H83        28.0402   -5.5019   -3.9288 H         1 UNK         0.1631 
     84 H84        28.0836   -6.9245   -6.1417 H         1 UNK         0.0717 
     85 H85        28.7145   -6.1559   -7.5646 H         1 UNK         0.0717 
     86 H86        27.6818   -4.7397   -8.9795 H         1 UNK         0.0934 
     87 H87        25.9848   -5.0659   -9.1032 H         1 UNK         0.0934 
     88 H88        26.2743   -2.7884   -9.7249 H         1 UNK         0.0739 
     89 H89        24.7976   -3.2724   -7.3362 H         1 UNK         0.3093 
     90 H90        23.2390   -0.0703   -7.1288 H         1 UNK         0.0818 
     91 H91        21.2085   -1.4870   -7.1916 H         1 UNK         0.0819 
     92 H92        21.9058   -1.3724   -8.7978 H         1 UNK         0.0819 
     93 H93        22.1291   -2.8384   -7.8535 H         1 UNK         0.0819 
     94 H94        22.9347   -2.3775   -5.5116 H         1 UNK         0.3041 
     95 H95        23.6322   -2.1565   -3.2910 H         1 UNK         0.0784 
     96 H96        26.4515   -3.0686   -4.1189 H         1 UNK         0.0793 
     97 H97        25.4947   -3.7619   -2.8144 H         1 UNK         0.0793 
     98 H98        24.9553   -3.9212   -4.4746 H         1 UNK         0.0793 
     99 H99        26.2014   -1.3769   -2.3090 H         1 UNK         0.3024 
    100 H100       25.8886    1.7744   -1.5461 H         1 UNK         0.1171 
    101 H101       23.8896    1.7093   -0.0820 H         1 UNK         0.0786 
    102 H102       25.3439    1.6883    0.8982 H         1 UNK         0.0786 
    103 H103       24.4277    0.2022    0.6467 H         1 UNK         0.0786 
    104 H104       26.7245   -0.5611    0.0768 H         1 UNK         0.2977 
    105 H105       26.9930   -2.2061   -6.2883 H         1 UNK         0.3127 
    106 H106       29.6860   -1.3542   -6.6259 H         1 UNK         0.0770 
    107 H107       27.6569   -0.7446   -4.4073 H         1 UNK         0.0814 
    108 H108       29.3526   -0.3511   -4.3371 H         1 UNK         0.0814 
    109 H109       28.8511   -2.0360   -4.4256 H         1 UNK         0.0814 
    110 H110       26.5950    0.4463   -6.5046 H         1 UNK         0.2983 
    111 H111       27.6674    3.0469   -6.8789 H         1 UNK         0.0947 
    112 H112       25.3246    3.6383   -7.5097 H         1 UNK         0.0806 
    113 H113       25.3520    2.6165   -6.0796 H         1 UNK         0.0806 
    114 H114       24.9117    1.9338   -7.6423 H         1 UNK         0.0806 
    115 H115       26.5399    0.6226   -9.2776 H         1 UNK         0.3000 
    116 H116       26.9864    2.2194  -11.5916 H         1 UNK         0.0850 
    117 H117       26.7841    0.0442  -12.8067 H         1 UNK         0.0810 
    118 H118       25.5168    0.2277  -11.6038 H         1 UNK         0.0810 
    119 H119       26.8891   -0.8291  -11.2837 H         1 UNK         0.0810 
    120 H120       29.0810   -0.2644  -10.0172 H         1 UNK         0.3040 
    121 H121       31.2459    0.0940  -11.9046 H         1 UNK         0.0766 
    122 H122       32.4204   -1.4917  -10.3502 H         1 UNK         0.0812 
    123 H123       30.8250   -2.0746  -10.8031 H         1 UNK         0.0812 
    124 H124       31.0822   -1.3566   -9.2169 H         1 UNK         0.0812 
    125 H125       30.3381    1.7903   -9.0475 H         1 UNK         0.3205 
    126 H126       31.1343    3.4527   -7.8533 H         1 UNK         0.0754 
    127 H127       32.9052    4.9603   -8.6583 H         1 UNK         0.0769 
    128 H128       31.8209    4.5694   -9.9836 H         1 UNK         0.0769 
    129 H129       33.4063    3.8043   -9.8809 H         1 UNK         0.0769 
    130 H130       31.4873    1.0705   -6.8817 H         1 UNK         0.2981 
    131 H131       34.1886    0.4214   -6.0787 H         1 UNK         0.0541 
    132 H132       34.5928    1.8504   -2.8399 H         1 UNK         0.3459 
    133 H133       35.1498    0.6166   -3.9393 H         1 UNK         0.3459 
    134 H134       31.5025   -0.5622   -4.9822 H         1 UNK         0.0612 
    135 H135       33.0554   -1.1938   -4.5022 H         1 UNK         0.0612 
    136 H136       33.3914   -3.4436   -5.1394 H         1 UNK         0.0624 
    137 H137       33.0031   -4.2058   -6.6543 H         1 UNK         0.0624 
@<TRIPOS>BOND
     1    1    2 1    
     2    1   72 1    
     3    1   73 1    
     4    1   74 1    
     5    2    3 2    
     6    2    4 am   BACKBONE|DICT|INTERRES
     7    4    5 1    
     8    4   75 1    
     9    5    6 1    
    10    5   35 1    
    11    5   76 1    
    12    6    7 1    
    13    6   77 1    
    14    6   78 1    
    15    7    8 1    
    16    8    9 1    
    17    8   79 1    
    18    8   80 1    
    19    9   10 ar   
    20    9   14 ar   
    21   10   11 ar   
    22   10   81 1    
    23   11   12 ar   
    24   11   71 1    
    25   12   13 ar   
    26   12   82 1    
    27   13   14 ar   
    28   13   15 1    
    29   14   83 1    
    30   15   16 1    
    31   15   84 1    
    32   15   85 1    
    33   16   17 1    
    34   17   18 1    
    35   17   86 1    
    36   17   87 1    
    37   18   19 1    
    38   18   37 1    
    39   18   88 1    
    40   19   20 am   BACKBONE|DICT|INTERRES
    41   19   89 1    
    42   20   21 2    
    43   20   22 1    
    44   22   23 1    
    45   22   24 1    
    46   22   90 1    
    47   23   91 1    
    48   23   92 1    
    49   23   93 1    
    50   24   25 am   BACKBONE|DICT|INTERRES
    51   24   94 1    
    52   25   26 2    
    53   25   27 1    
    54   27   28 1    
    55   27   29 1    
    56   27   95 1    
    57   28   96 1    
    58   28   97 1    
    59   28   98 1    
    60   29   30 am   BACKBONE|DICT|INTERRES
    61   29   99 1    
    62   30   31 2    
    63   30   32 1    
    64   32   33 1    
    65   32   34 1    
    66   32  100 1    
    67   33  101 1    
    68   33  102 1    
    69   33  103 1    
    70   34   35 am   BACKBONE|DICT|INTERRES
    71   34  104 1    
    72   35   36 2    
    73   37   38 2    
    74   37   39 am   BACKBONE|DICT|INTERRES
    75   39   40 1    
    76   39  105 1    
    77   40   41 1    
    78   40   42 1    
    79   40  106 1    
    80   41  107 1    
    81   41  108 1    
    82   41  109 1    
    83   42   43 2    
    84   42   44 am   BACKBONE|DICT|INTERRES
    85   44   45 1    
    86   44  110 1    
    87   45   46 1    
    88   45   47 1    
    89   45  111 1    
    90   46  112 1    
    91   46  113 1    
    92   46  114 1    
    93   47   48 2    
    94   47   49 am   BACKBONE|DICT|INTERRES
    95   49   50 1    
    96   49  115 1    
    97   50   51 1    
    98   50   52 1    
    99   50  116 1    
   100   51  117 1    
   101   51  118 1    
   102   51  119 1    
   103   52   53 2    
   104   52   54 am   BACKBONE|DICT|INTERRES
   105   54   55 1    
   106   54  120 1    
   107   55   56 1    
   108   55   57 1    
   109   55  121 1    
   110   56  122 1    
   111   56  123 1    
   112   56  124 1    
   113   57   58 2    
   114   57   59 am   BACKBONE|DICT|INTERRES
   115   59   60 1    
   116   59  125 1    
   117   60   61 1    
   118   60   62 1    
   119   60  126 1    
   120   61  127 1    
   121   61  128 1    
   122   61  129 1    
   123   62   63 2    
   124   62   64 am   BACKBONE|DICT|INTERRES
   125   64   65 1    
   126   64  130 1    
   127   65   66 1    
   128   65   69 1    
   129   65  131 1    
   130   66   67 am   BACKBONE|DICT|INTERRES
   131   66   68 2    
   132   67  132 1    
   133   67  133 1    
   134   69   70 1    
   135   69  134 1    
   136   69  135 1    
   137   70   71 1    
   138   71  136 1    
   139   71  137 1    
@<TRIPOS>SUBSTRUCTURE
     1 UNK         1 GROUP             0       ****    0 ROOT    
