@<TRIPOS>MOLECULE
3R137
137   139    1
SMALL
USER_CHARGES


@<TRIPOS>ATOM
      1 CA         26.7064   -6.5216   -5.0244 C.3       0 UNK        -0.2020 
      2 C          26.7508   -5.6952   -3.7485 C.2       0 UNK         0.4855 
      3 O          25.7127   -5.4723   -3.1249 O.2       0 UNK        -0.5197 
      4 N          27.9457   -5.2276   -3.3641 N.am      1 UNK        -0.4892 
      5 CA         28.2048   -4.3809   -2.1939 C.3       1 UNK         0.0835 
      6 C6         29.7269   -4.1647   -2.0178 C.3       12 UNK        -0.0855 
      7 S7         30.1632   -3.4684   -0.3900 S.3       12 UNK        -0.2931 
      8 C8         31.6749   -2.5345   -0.7954 C.3       12 UNK         0.0378 
      9 C9         31.3896   -1.3208   -1.6704 C.ar      12 UNK        -0.0802 
     10 C10        31.8229   -1.2849   -2.9995 C.ar      12 UNK        -0.0944 
     11 C11        31.5801   -0.1620   -3.8027 C.ar      12 UNK        -0.0787 
     12 C12        30.8972    0.9265   -3.2517 C.ar      12 UNK        -0.0862 
     13 C13        30.4368    0.8961   -1.9308 C.ar      12 UNK        -0.0733 
     14 C14        30.6981   -0.2281   -1.1436 C.ar      12 UNK        -0.0832 
     15 C15        29.6484    2.0598   -1.3349 C.3       12 UNK         0.0240 
     16 S16        28.3969    2.7787   -2.4552 S.3       12 UNK        -0.2522 
     17 C17        27.4839    1.3133   -3.0532 C.3       12 UNK        -0.0967 
     18 CA         27.5291    1.2086   -4.6011 C.3       5 UNK         0.0660 
     19 N          27.4729   -0.1860   -5.0643 N.am      5 UNK        -0.4015 
     20 C          27.4878   -0.5994   -6.3428 C.2       4 UNK         0.4946 
     21 O          27.5573    0.1531   -7.3106 O.2       4 UNK        -0.5353 
     22 CA         27.3115   -2.1039   -6.5933 C.3       4 UNK         0.0277 
     23 CB         28.6167   -2.8779   -6.3434 C.3       4 UNK        -0.1981 
     24 N          26.2260   -2.6303   -5.7651 N.am      4 UNK        -0.4209 
     25 C          24.9252   -2.4826   -6.0634 C.2       3 UNK         0.4942 
     26 O          24.5179   -2.0440   -7.1386 O.2       3 UNK        -0.5208 
     27 CA         23.8970   -2.8530   -4.9794 C.3       3 UNK         0.0250 
     28 CB         23.2981   -4.2440   -5.2407 C.3       3 UNK        -0.1990 
     29 N          24.4486   -2.7933   -3.6227 N.am      3 UNK        -0.4232 
     30 C          24.7349   -1.6481   -2.9839 C.2       2 UNK         0.4993 
     31 O          24.5262   -0.5326   -3.4616 O.2       2 UNK        -0.5286 
     32 CA         25.4274   -1.7613   -1.6122 C.3       2 UNK         0.0209 
     33 CB         24.3842   -1.8643   -0.4890 C.3       2 UNK        -0.1931 
     34 N          26.3617   -2.8895   -1.5205 N.am      2 UNK        -0.4546 
     35 C          27.4310   -3.0508   -2.3123 C.2       1 UNK         0.5154 
     36 O          27.7592   -2.2337   -3.1734 O.2       1 UNK        -0.5181 
     37 C          26.4518    2.1103   -5.2412 C.2       5 UNK         0.5014 
     38 O          26.7403    3.2586   -5.5818 O.2       5 UNK        -0.5248 
     39 N          25.2477    1.5587   -5.4525 N.am      6 UNK        -0.4434 
     40 CA         24.1421    2.1830   -6.1874 C.3       6 UNK         0.0363 
     41 CB         22.9248    1.2456   -6.1423 C.3       6 UNK        -0.1936 
     42 C          24.4715    2.5668   -7.6472 C.2       6 UNK         0.5081 
     43 O          23.7907    3.4294   -8.2024 O.2       6 UNK        -0.5248 
     44 N          25.5040    1.9477   -8.2349 N.am      7 UNK        -0.4718 
     45 CA         26.0479    2.2473   -9.5593 C.3       7 UNK         0.0273 
     46 CB         25.9827    0.9679  -10.4131 C.3       7 UNK        -0.1935 
     47 C          27.4800    2.8166   -9.4650 C.2       7 UNK         0.5018 
     48 O          28.2147    2.7618  -10.4527 O.2       7 UNK        -0.5186 
     49 N          27.8473    3.3693   -8.2970 N.am      8 UNK        -0.4240 
     50 CA         29.1448    3.9578   -7.9505 C.3       8 UNK         0.0235 
     51 CB         29.4322    5.2191   -8.7985 C.3       8 UNK        -0.2000 
     52 C          30.2677    2.9041   -7.9610 C.2       8 UNK         0.4941 
     53 O          30.1486    1.8901   -7.2734 O.2       8 UNK        -0.5273 
     54 N          31.3456    3.1407   -8.7192 N.am      9 UNK        -0.4262 
     55 CA         32.5256    2.2737   -8.8174 C.3       9 UNK         0.0264 
     56 CB         33.7241    3.1206   -9.2860 C.3       9 UNK        -0.1955 
     57 C          32.2989    1.0262   -9.7002 C.2       9 UNK         0.5031 
     58 O          33.1572    0.6903  -10.5183 O.2       9 UNK        -0.5390 
     59 N          31.1518    0.3580   -9.5271 N.am      10 UNK        -0.4204 
     60 CA         30.7816   -0.8695  -10.2385 C.3       10 UNK         0.0237 
     61 CB         29.2502   -0.9619  -10.3092 C.3       10 UNK        -0.1985 
     62 C          31.3706   -2.1384   -9.5962 C.2       10 UNK         0.4970 
     63 O          31.3616   -3.1919  -10.2341 O.2       10 UNK        -0.4914 
     64 N          31.8481   -2.0266   -8.3509 N.am      11 UNK        -0.4285 
     65 CA         32.5128   -3.0917   -7.5906 C.3       11 UNK         0.1007 
     66 C          33.8891   -3.5132   -8.1816 C.2       11 UNK         0.5703 
     67 N          34.3416   -4.7245   -7.8856 N.am      11 UNK        -0.7361 
     68 O          34.5599   -2.7535   -8.8784 O.2       11 UNK        -0.4986 
     69 C69        32.6020   -2.7302   -6.0831 C.3       12 UNK        -0.0947 
     70 S70        33.4189   -1.1281   -5.7463 S.3       12 UNK        -0.2240 
     71 C71        31.9990   -0.0825   -5.2721 C.3       12 UNK         0.0194 
     72 H72        27.6991   -6.8540   -5.3274 H         1 UNK         0.0906 
     73 H73        26.0859   -7.4054   -4.8787 H         1 UNK         0.0906 
     74 H74        26.2808   -5.9352   -5.8382 H         1 UNK         0.0906 
     75 H75        28.7548   -5.4376   -3.9307 H         1 UNK         0.3140 
     76 H76        27.8358   -4.9218   -1.3197 H         1 UNK         0.1085 
     77 H77        30.2510   -5.1180   -2.1038 H         1 UNK         0.0836 
     78 H78        30.1183   -3.5367   -2.8197 H         1 UNK         0.0836 
     79 H79        32.3926   -3.2024   -1.2746 H         1 UNK         0.0731 
     80 H80        32.1423   -2.2019    0.1326 H         1 UNK         0.0731 
     81 H81        32.3482   -2.1394   -3.3988 H         1 UNK         0.1312 
     82 H82        30.7014    1.7955   -3.8649 H         1 UNK         0.1406 
     83 H83        30.3543   -0.2632   -0.1185 H         1 UNK         0.1631 
     84 H84        30.3479    2.8436   -1.0422 H         1 UNK         0.0717 
     85 H85        29.1385    1.7453   -0.4229 H         1 UNK         0.0717 
     86 H86        27.9151    0.4201   -2.6007 H         1 UNK         0.0934 
     87 H87        26.4589    1.3544   -2.6794 H         1 UNK         0.0934 
     88 H88        28.4947    1.5782   -4.9521 H         1 UNK         0.0739 
     89 H89        27.4751   -0.8987   -4.3364 H         1 UNK         0.3093 
     90 H90        27.0466   -2.2395   -7.6445 H         1 UNK         0.0818 
     91 H91        29.3925   -2.5424   -7.0310 H         1 UNK         0.0819 
     92 H92        29.0013   -2.7361   -5.3342 H         1 UNK         0.0819 
     93 H93        28.4820   -3.9470   -6.5062 H         1 UNK         0.0819 
     94 H94        26.4787   -2.9445   -4.8380 H         1 UNK         0.3041 
     95 H95        23.0854   -2.1245   -5.0442 H         1 UNK         0.0784 
     96 H96        22.8264   -4.2851   -6.2235 H         1 UNK         0.0793 
     97 H97        24.0547   -5.0270   -5.2124 H         1 UNK         0.0793 
     98 H98        22.5329   -4.4909   -4.5047 H         1 UNK         0.0793 
     99 H99        24.6974   -3.6780   -3.1897 H         1 UNK         0.3024 
    100 H100       26.0014   -0.8451   -1.4613 H         1 UNK         0.1171 
    101 H101       23.7944   -2.7786   -0.5666 H         1 UNK         0.0786 
    102 H102       23.6892   -1.0239   -0.5244 H         1 UNK         0.0786 
    103 H103       24.8560   -1.8503    0.4937 H         1 UNK         0.0786 
    104 H104       26.1253   -3.6223   -0.8664 H         1 UNK         0.2977 
    105 H105       25.0688    0.6415   -5.0554 H         1 UNK         0.3127 
    106 H106       23.8851    3.1052   -5.6626 H         1 UNK         0.0770 
    107 H107       23.1272    0.3011   -6.6484 H         1 UNK         0.0814 
    108 H108       22.0629    1.7001   -6.6327 H         1 UNK         0.0814 
    109 H109       22.6325    1.0208   -5.1163 H         1 UNK         0.0814 
    110 H110       26.0431    1.2663   -7.7040 H         1 UNK         0.2983 
    111 H111       25.4480    3.0141  -10.0534 H         1 UNK         0.0947 
    112 H112       24.9541    0.6271  -10.5315 H         1 UNK         0.0806 
    113 H113       26.5498    0.1559   -9.9579 H         1 UNK         0.0806 
    114 H114       26.3841    1.1333  -11.4136 H         1 UNK         0.0806 
    115 H115       27.1969    3.3070   -7.5194 H         1 UNK         0.3000 
    116 H116       29.0560    4.2789   -6.9116 H         1 UNK         0.0850 
    117 H117       30.3369    5.7258   -8.4596 H         1 UNK         0.0810 
    118 H118       28.6179    5.9386   -8.7113 H         1 UNK         0.0810 
    119 H119       29.5539    4.9910   -9.8579 H         1 UNK         0.0810 
    120 H120       31.3495    3.9720   -9.2924 H         1 UNK         0.3040 
    121 H121       32.7614    1.9044   -7.8171 H         1 UNK         0.0766 
    122 H122       34.6418    2.5307   -9.2958 H         1 UNK         0.0812 
    123 H123       33.5741    3.5080  -10.2945 H         1 UNK         0.0812 
    124 H124       33.8968    3.9676   -8.6218 H         1 UNK         0.0812 
    125 H125       30.5057    0.7076   -8.8233 H         1 UNK         0.3205 
    126 H126       31.1628   -0.8153  -11.2604 H         1 UNK         0.0754 
    127 H127       28.9340   -1.8417  -10.8711 H         1 UNK         0.0769 
    128 H128       28.8287   -0.0895  -10.8087 H         1 UNK         0.0769 
    129 H129       28.8049   -1.0305   -9.3170 H         1 UNK         0.0769 
    130 H130       31.8630   -1.1140   -7.9241 H         1 UNK         0.2981 
    131 H131       31.8670   -3.9687   -7.6696 H         1 UNK         0.0541 
    132 H132       33.8083   -5.3562   -7.3088 H         1 UNK         0.3459 
    133 H133       35.2361   -5.0140   -8.2494 H         1 UNK         0.3459 
    134 H134       33.1332   -3.5074   -5.5310 H         1 UNK         0.0612 
    135 H135       31.5978   -2.7140   -5.6580 H         1 UNK         0.0612 
    136 H136       31.1383   -0.3239   -5.8974 H         1 UNK         0.0624 
    137 H137       32.2665    0.9483   -5.5092 H         1 UNK         0.0624 
@<TRIPOS>BOND
     1    1    2 1    
     2    1   72 1    
     3    1   73 1    
     4    1   74 1    
     5    2    3 2    
     6    2    4 am   BACKBONE|DICT|INTERRES
     7    4    5 1    
     8    4   75 1    
     9    5    6 1    
    10    5   35 1    
    11    5   76 1    
    12    6    7 1    
    13    6   77 1    
    14    6   78 1    
    15    7    8 1    
    16    8    9 1    
    17    8   79 1    
    18    8   80 1    
    19    9   10 ar   
    20    9   14 ar   
    21   10   11 ar   
    22   10   81 1    
    23   11   12 ar   
    24   11   71 1    
    25   12   13 ar   
    26   12   82 1    
    27   13   14 ar   
    28   13   15 1    
    29   14   83 1    
    30   15   16 1    
    31   15   84 1    
    32   15   85 1    
    33   16   17 1    
    34   17   18 1    
    35   17   86 1    
    36   17   87 1    
    37   18   19 1    
    38   18   37 1    
    39   18   88 1    
    40   19   20 am   BACKBONE|DICT|INTERRES
    41   19   89 1    
    42   20   21 2    
    43   20   22 1    
    44   22   23 1    
    45   22   24 1    
    46   22   90 1    
    47   23   91 1    
    48   23   92 1    
    49   23   93 1    
    50   24   25 am   BACKBONE|DICT|INTERRES
    51   24   94 1    
    52   25   26 2    
    53   25   27 1    
    54   27   28 1    
    55   27   29 1    
    56   27   95 1    
    57   28   96 1    
    58   28   97 1    
    59   28   98 1    
    60   29   30 am   BACKBONE|DICT|INTERRES
    61   29   99 1    
    62   30   31 2    
    63   30   32 1    
    64   32   33 1    
    65   32   34 1    
    66   32  100 1    
    67   33  101 1    
    68   33  102 1    
    69   33  103 1    
    70   34   35 am   BACKBONE|DICT|INTERRES
    71   34  104 1    
    72   35   36 2    
    73   37   38 2    
    74   37   39 am   BACKBONE|DICT|INTERRES
    75   39   40 1    
    76   39  105 1    
    77   40   41 1    
    78   40   42 1    
    79   40  106 1    
    80   41  107 1    
    81   41  108 1    
    82   41  109 1    
    83   42   43 2    
    84   42   44 am   BACKBONE|DICT|INTERRES
    85   44   45 1    
    86   44  110 1    
    87   45   46 1    
    88   45   47 1    
    89   45  111 1    
    90   46  112 1    
    91   46  113 1    
    92   46  114 1    
    93   47   48 2    
    94   47   49 am   BACKBONE|DICT|INTERRES
    95   49   50 1    
    96   49  115 1    
    97   50   51 1    
    98   50   52 1    
    99   50  116 1    
   100   51  117 1    
   101   51  118 1    
   102   51  119 1    
   103   52   53 2    
   104   52   54 am   BACKBONE|DICT|INTERRES
   105   54   55 1    
   106   54  120 1    
   107   55   56 1    
   108   55   57 1    
   109   55  121 1    
   110   56  122 1    
   111   56  123 1    
   112   56  124 1    
   113   57   58 2    
   114   57   59 am   BACKBONE|DICT|INTERRES
   115   59   60 1    
   116   59  125 1    
   117   60   61 1    
   118   60   62 1    
   119   60  126 1    
   120   61  127 1    
   121   61  128 1    
   122   61  129 1    
   123   62   63 2    
   124   62   64 am   BACKBONE|DICT|INTERRES
   125   64   65 1    
   126   64  130 1    
   127   65   66 1    
   128   65   69 1    
   129   65  131 1    
   130   66   67 am   BACKBONE|DICT|INTERRES
   131   66   68 2    
   132   67  132 1    
   133   67  133 1    
   134   69   70 1    
   135   69  134 1    
   136   69  135 1    
   137   70   71 1    
   138   71  136 1    
   139   71  137 1    
@<TRIPOS>SUBSTRUCTURE
     1 UNK         1 GROUP             0       ****    0 ROOT    
