@<TRIPOS>MOLECULE
3R137
137   139    1
SMALL
USER_CHARGES


@<TRIPOS>ATOM
      1 CA         30.2800    1.8175   -2.2569 C.3       0 UNK        -0.2020 
      2 C          29.8566    0.3627   -2.3950 C.2       0 UNK         0.4855 
      3 O          30.1785   -0.2725   -3.3978 O.2       0 UNK        -0.5197 
      4 N          29.1300   -0.1537   -1.3986 N.am      1 UNK        -0.4892 
      5 CA         28.5913   -1.5150   -1.3619 C.3       1 UNK         0.0835 
      6 C6         29.0118   -2.2660   -0.0711 C.3       12 UNK        -0.0855 
      7 S7         30.8221   -2.4272    0.1209 S.3       12 UNK        -0.2931 
      8 C8         31.1034   -4.1837   -0.2691 C.3       12 UNK         0.0378 
      9 C9         31.0933   -4.4343   -1.7694 C.ar      12 UNK        -0.0802 
     10 C10        32.2797   -4.3447   -2.5047 C.ar      12 UNK        -0.0944 
     11 C11        32.2816   -4.5810   -3.8830 C.ar      12 UNK        -0.0787 
     12 C12        31.0822   -4.9025   -4.5260 C.ar      12 UNK        -0.0862 
     13 C13        29.8868   -4.9682   -3.8051 C.ar      12 UNK        -0.0733 
     14 C14        29.9015   -4.7563   -2.4240 C.ar      12 UNK        -0.0832 
     15 C15        28.5724   -5.2426   -4.5160 C.3       12 UNK         0.0240 
     16 S16        27.6940   -3.6885   -4.8686 S.3       12 UNK        -0.2522 
     17 C17        28.6359   -3.0397   -6.2941 C.3       12 UNK        -0.0967 
     18 CA         27.8860   -1.9824   -7.1530 C.3       5 UNK         0.0660 
     19 N          26.4403   -2.2186   -7.2160 N.am      5 UNK        -0.4015 
     20 C          25.5836   -1.6104   -8.0467 C.2       4 UNK         0.4946 
     21 O          25.9218   -0.8047   -8.9112 O.2       4 UNK        -0.5353 
     22 CA         24.0962   -1.8787   -7.8056 C.3       4 UNK         0.0277 
     23 CB         23.7289   -3.3648   -7.9708 C.3       4 UNK        -0.1981 
     24 N          23.7821   -1.4113   -6.4620 N.am      4 UNK        -0.4209 
     25 C          22.6261   -0.9180   -6.0191 C.2       3 UNK         0.4942 
     26 O          21.5970   -0.8802   -6.6956 O.2       3 UNK        -0.5208 
     27 CA         22.6418   -0.3527   -4.5780 C.3       3 UNK         0.0250 
     28 CB         21.2358    0.0383   -4.0850 C.3       3 UNK        -0.1990 
     29 N          23.2667   -1.2311   -3.5754 N.am      3 UNK        -0.4232 
     30 C          24.5674   -1.5427   -3.4817 C.2       2 UNK         0.4993 
     31 O          25.4151   -1.1784   -4.3023 O.2       2 UNK        -0.5286 
     32 CA         24.9772   -2.4560   -2.3153 C.3       2 UNK         0.0209 
     33 CB         24.5739   -3.9117   -2.6061 C.3       2 UNK        -0.1931 
     34 N          26.4239   -2.4060   -2.0884 N.am      2 UNK        -0.4546 
     35 C          27.0560   -1.4244   -1.4348 C.2       1 UNK         0.5154 
     36 O          26.4720   -0.4961   -0.8674 O.2       1 UNK        -0.5181 
     37 C          28.2320   -0.5351   -6.7431 C.2       5 UNK         0.5014 
     38 O          29.1212    0.0622   -7.3581 O.2       5 UNK        -0.5248 
     39 N          27.5003    0.0188   -5.7630 N.am      6 UNK        -0.4434 
     40 CA         27.5914    1.4223   -5.3526 C.3       6 UNK         0.0363 
     41 CB         26.7980    1.6504   -4.0556 C.3       6 UNK        -0.1936 
     42 C          27.0956    2.3789   -6.4444 C.2       6 UNK         0.5081 
     43 O          27.7383    3.3981   -6.6949 O.2       6 UNK        -0.5248 
     44 N          25.9675    2.0188   -7.0731 N.am      7 UNK        -0.4718 
     45 CA         25.3105    2.7899   -8.1303 C.3       7 UNK         0.0273 
     46 CB         23.9162    2.2006   -8.4001 C.3       7 UNK        -0.1935 
     47 C          26.1334    2.8661   -9.4270 C.2       7 UNK         0.5018 
     48 O          26.0723    3.8880  -10.1111 O.2       7 UNK        -0.5186 
     49 N          26.8813    1.7957   -9.7325 N.am      8 UNK        -0.4240 
     50 CA         27.8155    1.7041  -10.8524 C.3       8 UNK         0.0235 
     51 CB         28.2858    0.2467  -11.0201 C.3       8 UNK        -0.2000 
     52 C          28.9922    2.6823  -10.6994 C.2       8 UNK         0.4941 
     53 O          29.0178    3.7017  -11.3909 O.2       8 UNK        -0.5273 
     54 N          29.9425    2.3569   -9.8115 N.am      9 UNK        -0.4262 
     55 CA         31.1652    3.1358   -9.5816 C.3       9 UNK         0.0264 
     56 CB         32.0878    3.0880  -10.8250 C.3       9 UNK        -0.1955 
     57 C          31.9001    2.6709   -8.3126 C.2       9 UNK         0.5031 
     58 O          33.1301    2.5902   -8.3282 O.2       9 UNK        -0.5390 
     59 N          31.1542    2.3280   -7.2487 N.am      10 UNK        -0.4204 
     60 CA         31.6591    1.7721   -5.9784 C.3       10 UNK         0.0237 
     61 CB         32.3535    2.8735   -5.1491 C.3       10 UNK        -0.1985 
     62 C          32.5398    0.5200   -6.1822 C.2       10 UNK         0.4970 
     63 O          33.6291    0.4327   -5.6139 O.2       10 UNK        -0.4914 
     64 N          32.0616   -0.3696   -7.0633 N.am      11 UNK        -0.4285 
     65 CA         32.7490   -1.5335   -7.6498 C.3       11 UNK         0.1007 
     66 C          34.1107   -1.2684   -8.3667 C.2       11 UNK         0.5703 
     67 N          34.4803   -0.0305   -8.6750 N.am      11 UNK        -0.7361 
     68 O          34.8271   -2.2087   -8.7034 O.2       11 UNK        -0.4986 
     69 C69        32.7235   -2.7976   -6.7432 C.3       12 UNK        -0.0947 
     70 S70        33.8721   -2.8188   -5.3260 S.3       12 UNK        -0.2240 
     71 C71        33.5811   -4.4932   -4.6719 C.3       12 UNK         0.0194 
     72 H72        29.9607    2.3896   -3.1271 H         1 UNK         0.0906 
     73 H73        29.8509    2.2851   -1.3709 H         1 UNK         0.0906 
     74 H74        31.3648    1.8835   -2.1819 H         1 UNK         0.0906 
     75 H75        28.8382    0.4348   -0.6306 H         1 UNK         0.3140 
     76 H76        28.9422   -2.0801   -2.2284 H         1 UNK         0.1085 
     77 H77        28.5563   -3.2570   -0.0366 H         1 UNK         0.0836 
     78 H78        28.6376   -1.7412    0.8104 H         1 UNK         0.0836 
     79 H79        32.0682   -4.4810    0.1448 H         1 UNK         0.0731 
     80 H80        30.3595   -4.8051    0.2320 H         1 UNK         0.0731 
     81 H81        33.2033   -4.0884   -2.0036 H         1 UNK         0.1312 
     82 H82        31.0757   -5.0814   -5.5922 H         1 UNK         0.1406 
     83 H83        28.9798   -4.8230   -1.8632 H         1 UNK         0.1631 
     84 H84        27.9390   -5.8711   -3.8881 H         1 UNK         0.0717 
     85 H85        28.7344   -5.8005   -5.4395 H         1 UNK         0.0717 
     86 H86        29.5803   -2.6454   -5.9177 H         1 UNK         0.0934 
     87 H87        28.9012   -3.8843   -6.9319 H         1 UNK         0.0934 
     88 H88        28.2551   -2.0873   -8.1758 H         1 UNK         0.0739 
     89 H89        26.0871   -2.8591   -6.5190 H         1 UNK         0.3093 
     90 H90        23.5286   -1.2938   -8.5326 H         1 UNK         0.0818 
     91 H91        22.6531   -3.5138   -7.8773 H         1 UNK         0.0819 
     92 H92        24.0216   -3.7317   -8.9554 H         1 UNK         0.0819 
     93 H93        24.2151   -3.9952   -7.2257 H         1 UNK         0.0819 
     94 H94        24.5564   -1.3785   -5.7989 H         1 UNK         0.3041 
     95 H95        23.2355    0.5629   -4.6210 H         1 UNK         0.0784 
     96 H96        20.7669    0.7552   -4.7607 H         1 UNK         0.0793 
     97 H97        20.5768   -0.8284   -4.0200 H         1 UNK         0.0793 
     98 H98        21.2747    0.5069   -3.1014 H         1 UNK         0.0793 
     99 H99        22.6369   -1.6197   -2.8880 H         1 UNK         0.3024 
    100 H100       24.4643   -2.1166   -1.4122 H         1 UNK         0.1171 
    101 H101       23.4932   -4.0080   -2.7173 H         1 UNK         0.0786 
    102 H102       24.8724   -4.5751   -1.7942 H         1 UNK         0.0786 
    103 H103       25.0280   -4.2835   -3.5254 H         1 UNK         0.0786 
    104 H104       26.9716   -3.0802   -2.6052 H         1 UNK         0.2977 
    105 H105       26.8112   -0.5493   -5.2719 H         1 UNK         0.3127 
    106 H106       28.6360    1.6501   -5.1506 H         1 UNK         0.0770 
    107 H107       25.7262    1.5145   -4.2031 H         1 UNK         0.0814 
    108 H108       26.9484    2.6635   -3.6809 H         1 UNK         0.0814 
    109 H109       27.1099    0.9645   -3.2705 H         1 UNK         0.0814 
    110 H110       25.5371    1.1448   -6.8133 H         1 UNK         0.2983 
    111 H111       25.1845    3.8116   -7.7647 H         1 UNK         0.0947 
    112 H112       23.3031    2.1946   -7.4987 H         1 UNK         0.0806 
    113 H113       23.9740    1.1786   -8.7750 H         1 UNK         0.0806 
    114 H114       23.3843    2.7899   -9.1484 H         1 UNK         0.0806 
    115 H115       26.7738    0.9617   -9.1631 H         1 UNK         0.3000 
    116 H116       27.2756    1.9846  -11.7594 H         1 UNK         0.0850 
    117 H117       29.0315    0.1628  -11.8118 H         1 UNK         0.0810 
    118 H118       27.4530   -0.4023  -11.2921 H         1 UNK         0.0810 
    119 H119       28.7260   -0.1545  -10.1070 H         1 UNK         0.0810 
    120 H120       29.8346    1.5066   -9.2729 H         1 UNK         0.3040 
    121 H121       30.8778    4.1744   -9.4059 H         1 UNK         0.0766 
    122 H122       31.6049    3.4927  -11.7136 H         1 UNK         0.0812 
    123 H123       32.9912    3.6793  -10.6696 H         1 UNK         0.0812 
    124 H124       32.4000    2.0675  -11.0501 H         1 UNK         0.0812 
    125 H125       30.1482    2.4152   -7.3170 H         1 UNK         0.3205 
    126 H126       30.7960    1.4286   -5.4133 H         1 UNK         0.0754 
    127 H127       32.6762    2.4905   -4.1806 H         1 UNK         0.0769 
    128 H128       31.6804    3.7094   -4.9594 H         1 UNK         0.0769 
    129 H129       33.2384    3.2623   -5.6541 H         1 UNK         0.0769 
    130 H130       31.1293   -0.1935   -7.4215 H         1 UNK         0.2981 
    131 H131       32.0979   -1.7838   -8.4881 H         1 UNK         0.0541 
    132 H132       33.9201    0.7744   -8.4137 H         1 UNK         0.3459 
    133 H133       35.3551    0.1098   -9.1537 H         1 UNK         0.3459 
    134 H134       32.9244   -3.6830   -7.3487 H         1 UNK         0.0612 
    135 H135       31.7172   -2.9305   -6.3567 H         1 UNK         0.0612 
    136 H136       33.5805   -5.2146   -5.4904 H         1 UNK         0.0624 
    137 H137       34.4203   -4.7655   -4.0301 H         1 UNK         0.0624 
@<TRIPOS>BOND
     1    1    2 1    
     2    1   72 1    
     3    1   73 1    
     4    1   74 1    
     5    2    3 2    
     6    2    4 am   BACKBONE|DICT|INTERRES
     7    4    5 1    
     8    4   75 1    
     9    5    6 1    
    10    5   35 1    
    11    5   76 1    
    12    6    7 1    
    13    6   77 1    
    14    6   78 1    
    15    7    8 1    
    16    8    9 1    
    17    8   79 1    
    18    8   80 1    
    19    9   10 ar   
    20    9   14 ar   
    21   10   11 ar   
    22   10   81 1    
    23   11   12 ar   
    24   11   71 1    
    25   12   13 ar   
    26   12   82 1    
    27   13   14 ar   
    28   13   15 1    
    29   14   83 1    
    30   15   16 1    
    31   15   84 1    
    32   15   85 1    
    33   16   17 1    
    34   17   18 1    
    35   17   86 1    
    36   17   87 1    
    37   18   19 1    
    38   18   37 1    
    39   18   88 1    
    40   19   20 am   BACKBONE|DICT|INTERRES
    41   19   89 1    
    42   20   21 2    
    43   20   22 1    
    44   22   23 1    
    45   22   24 1    
    46   22   90 1    
    47   23   91 1    
    48   23   92 1    
    49   23   93 1    
    50   24   25 am   BACKBONE|DICT|INTERRES
    51   24   94 1    
    52   25   26 2    
    53   25   27 1    
    54   27   28 1    
    55   27   29 1    
    56   27   95 1    
    57   28   96 1    
    58   28   97 1    
    59   28   98 1    
    60   29   30 am   BACKBONE|DICT|INTERRES
    61   29   99 1    
    62   30   31 2    
    63   30   32 1    
    64   32   33 1    
    65   32   34 1    
    66   32  100 1    
    67   33  101 1    
    68   33  102 1    
    69   33  103 1    
    70   34   35 am   BACKBONE|DICT|INTERRES
    71   34  104 1    
    72   35   36 2    
    73   37   38 2    
    74   37   39 am   BACKBONE|DICT|INTERRES
    75   39   40 1    
    76   39  105 1    
    77   40   41 1    
    78   40   42 1    
    79   40  106 1    
    80   41  107 1    
    81   41  108 1    
    82   41  109 1    
    83   42   43 2    
    84   42   44 am   BACKBONE|DICT|INTERRES
    85   44   45 1    
    86   44  110 1    
    87   45   46 1    
    88   45   47 1    
    89   45  111 1    
    90   46  112 1    
    91   46  113 1    
    92   46  114 1    
    93   47   48 2    
    94   47   49 am   BACKBONE|DICT|INTERRES
    95   49   50 1    
    96   49  115 1    
    97   50   51 1    
    98   50   52 1    
    99   50  116 1    
   100   51  117 1    
   101   51  118 1    
   102   51  119 1    
   103   52   53 2    
   104   52   54 am   BACKBONE|DICT|INTERRES
   105   54   55 1    
   106   54  120 1    
   107   55   56 1    
   108   55   57 1    
   109   55  121 1    
   110   56  122 1    
   111   56  123 1    
   112   56  124 1    
   113   57   58 2    
   114   57   59 am   BACKBONE|DICT|INTERRES
   115   59   60 1    
   116   59  125 1    
   117   60   61 1    
   118   60   62 1    
   119   60  126 1    
   120   61  127 1    
   121   61  128 1    
   122   61  129 1    
   123   62   63 2    
   124   62   64 am   BACKBONE|DICT|INTERRES
   125   64   65 1    
   126   64  130 1    
   127   65   66 1    
   128   65   69 1    
   129   65  131 1    
   130   66   67 am   BACKBONE|DICT|INTERRES
   131   66   68 2    
   132   67  132 1    
   133   67  133 1    
   134   69   70 1    
   135   69  134 1    
   136   69  135 1    
   137   70   71 1    
   138   71  136 1    
   139   71  137 1    
@<TRIPOS>SUBSTRUCTURE
     1 UNK         1 GROUP             0       ****    0 ROOT    
