@<TRIPOS>MOLECULE
3R137
137   139    1
SMALL
USER_CHARGES


@<TRIPOS>ATOM
      1 CA         30.0780    0.5393    0.5438 C.3       0 UNK        -0.2020 
      2 C          29.4913   -0.4663   -0.4354 C.2       0 UNK         0.4855 
      3 O          29.3737   -0.1640   -1.6221 O.2       0 UNK        -0.5197 
      4 N          29.1337   -1.6601    0.0516 N.am      1 UNK        -0.4892 
      5 CA         28.5177   -2.7316   -0.7392 C.3       1 UNK         0.0835 
      6 C6         28.7362   -4.1273   -0.0998 C.3       12 UNK        -0.0855 
      7 S7         30.5000   -4.5093    0.1766 S.3       12 UNK        -0.2931 
      8 C8         30.9200   -5.4745   -1.3139 C.3       12 UNK         0.0378 
      9 C9         30.7968   -4.6738   -2.6072 C.ar      12 UNK        -0.0802 
     10 C10        31.4204   -3.4294   -2.7386 C.ar      12 UNK        -0.0944 
     11 C11        31.3182   -2.7033   -3.9276 C.ar      12 UNK        -0.0787 
     12 C12        30.6086   -3.2412   -5.0056 C.ar      12 UNK        -0.0862 
     13 C13        29.9877   -4.4943   -4.8969 C.ar      12 UNK        -0.0733 
     14 C14        30.0828   -5.1962   -3.6899 C.ar      12 UNK        -0.0832 
     15 C15        29.2585   -5.1600   -6.0665 C.3       12 UNK         0.0240 
     16 S16        28.6551   -4.0355   -7.3695 S.3       12 UNK        -0.2522 
     17 C17        27.2543   -3.2386   -6.5220 C.3       12 UNK        -0.0967 
     18 CA         26.7353   -2.0080   -7.3037 C.3       5 UNK         0.0660 
     19 N          25.3404   -1.7026   -6.9757 N.am      5 UNK        -0.4015 
     20 C          24.5504   -0.8878   -7.6887 C.2       4 UNK         0.4946 
     21 O          24.9080   -0.3130   -8.7150 O.2       4 UNK        -0.5353 
     22 CA         23.1341   -0.6400   -7.1453 C.3       4 UNK         0.0277 
     23 CB         22.1966   -1.7986   -7.5206 C.3       4 UNK        -0.1981 
     24 N          23.1190   -0.4377   -5.6953 N.am      4 UNK        -0.4209 
     25 C          23.6767    0.6134   -5.0774 C.2       3 UNK         0.4942 
     26 O          24.2073    1.5535   -5.6683 O.2       3 UNK        -0.5208 
     27 CA         23.6834    0.5892   -3.5391 C.3       3 UNK         0.0250 
     28 CB         22.3777    1.1815   -2.9851 C.3       3 UNK        -0.1990 
     29 N          23.9072   -0.7416   -2.9581 N.am      3 UNK        -0.4232 
     30 C          24.9836   -1.5060   -3.1890 C.2       2 UNK         0.4993 
     31 O          25.8713   -1.2199   -3.9952 O.2       2 UNK        -0.5286 
     32 CA         25.0710   -2.8397   -2.4357 C.3       2 UNK         0.0209 
     33 CB         24.6205   -3.9981   -3.3407 C.3       2 UNK        -0.1931 
     34 N          26.4490   -3.0748   -2.0028 N.am      2 UNK        -0.4546 
     35 C          27.0165   -2.4607   -0.9568 C.2       1 UNK         0.5154 
     36 O          26.3936   -1.7400   -0.1708 O.2       1 UNK        -0.5181 
     37 C          27.6408   -0.7770   -7.1091 C.2       5 UNK         0.5014 
     38 O          28.4749   -0.4935   -7.9709 O.2       5 UNK        -0.5248 
     39 N          27.4252   -0.0396   -6.0107 N.am      6 UNK        -0.4434 
     40 CA         28.0940    1.2251   -5.7014 C.3       6 UNK         0.0363 
     41 CB         27.6470    1.7139   -4.3157 C.3       6 UNK        -0.1936 
     42 C          27.8543    2.3157   -6.7620 C.2       6 UNK         0.5081 
     43 O          28.7535    3.1170   -7.0121 O.2       6 UNK        -0.5248 
     44 N          26.6611    2.3210   -7.3704 N.am      7 UNK        -0.4718 
     45 CA         26.3057    3.2050   -8.4774 C.3       7 UNK         0.0273 
     46 CB         24.7770    3.3622   -8.5385 C.3       7 UNK        -0.1935 
     47 C          26.8619    2.7094   -9.8228 C.2       7 UNK         0.5018 
     48 O          27.4978    3.4896  -10.5325 O.2       7 UNK        -0.5186 
     49 N          26.5773    1.4461  -10.1722 N.am      8 UNK        -0.4240 
     50 CA         26.8509    0.8814  -11.4961 C.3       8 UNK         0.0235 
     51 CB         25.9699   -0.3582  -11.7246 C.3       8 UNK        -0.2000 
     52 C          28.3272    0.5370  -11.7371 C.2       8 UNK         0.4941 
     53 O          28.8469    0.8599  -12.8066 O.2       8 UNK        -0.5273 
     54 N          28.9622   -0.1367  -10.7703 N.am      9 UNK        -0.4262 
     55 CA         30.3453   -0.6070  -10.8689 C.3       9 UNK         0.0264 
     56 CB         30.4417   -2.0500  -10.3428 C.3       9 UNK        -0.1955 
     57 C          31.2939    0.3193  -10.1001 C.2       9 UNK         0.5031 
     58 O          32.3123    0.7287  -10.6605 O.2       9 UNK        -0.5390 
     59 N          30.9226    0.6355   -8.8499 N.am      10 UNK        -0.4204 
     60 CA         31.6476    1.4384   -7.8574 C.3       10 UNK         0.0237 
     61 CB         31.9148    2.8651   -8.3836 C.3       10 UNK        -0.1985 
     62 C          32.9367    0.7745   -7.3345 C.2       10 UNK         0.4970 
     63 O          33.4521   -0.1752   -7.9278 O.2       10 UNK        -0.4914 
     64 N          33.4277    1.3054   -6.2100 N.am      11 UNK        -0.4285 
     65 CA         34.6788    0.9051   -5.5437 C.3       11 UNK         0.1007 
     66 C          35.6527    2.1028   -5.3330 C.2       11 UNK         0.5703 
     67 N          35.4088    3.2736   -5.9124 N.am      11 UNK        -0.7361 
     68 O          36.6651    1.9682   -4.6495 O.2       11 UNK        -0.4986 
     69 C69        34.3983    0.1326   -4.2245 C.3       12 UNK        -0.0947 
     70 S70        33.7357   -1.5405   -4.5175 S.3       12 UNK        -0.2240 
     71 C71        31.9928   -1.3456   -4.0420 C.3       12 UNK         0.0194 
     72 H72        31.0813    0.8259    0.2298 H         1 UNK         0.0906 
     73 H73        29.4606    1.4367    0.5736 H         1 UNK         0.0906 
     74 H74        30.1410    0.1365    1.5546 H         1 UNK         0.0906 
     75 H75        29.2376   -1.8523    1.0374 H         1 UNK         0.3140 
     76 H76        28.9813   -2.7269   -1.7269 H         1 UNK         0.1085 
     77 H77        28.2266   -4.1879    0.8639 H         1 UNK         0.0836 
     78 H78        28.2988   -4.9121   -0.7202 H         1 UNK         0.0836 
     79 H79        31.9479   -5.8279   -1.2220 H         1 UNK         0.0731 
     80 H80        30.2914   -6.3659   -1.3436 H         1 UNK         0.0731 
     81 H81        31.9820   -3.0207   -1.9095 H         1 UNK         0.1312 
     82 H82        30.5616   -2.6847   -5.9311 H         1 UNK         0.1406 
     83 H83        29.6174   -6.1690   -3.6022 H         1 UNK         0.1631 
     84 H84        28.4122   -5.7417   -5.6971 H         1 UNK         0.0717 
     85 H85        29.9428   -5.8732   -6.5276 H         1 UNK         0.0717 
     86 H86        26.4679   -3.9906   -6.4410 H         1 UNK         0.0934 
     87 H87        27.5305   -2.9767   -5.4981 H         1 UNK         0.0934 
     88 H88        26.7515   -2.2516   -8.3689 H         1 UNK         0.0739 
     89 H89        24.9931   -2.0687   -6.1021 H         1 UNK         0.3093 
     90 H90        22.7556    0.2703   -7.6158 H         1 UNK         0.0818 
     91 H91        21.1705   -1.5928   -7.2152 H         1 UNK         0.0819 
     92 H92        22.1853   -1.9550   -8.6003 H         1 UNK         0.0819 
     93 H93        22.5026   -2.7381   -7.0587 H         1 UNK         0.0819 
     94 H94        22.6912   -1.1568   -5.1304 H         1 UNK         0.3041 
     95 H95        24.5081    1.2250   -3.2109 H         1 UNK         0.0784 
     96 H96        22.2002    2.1794   -3.3890 H         1 UNK         0.0793 
     97 H97        21.5130    0.5679   -3.2410 H         1 UNK         0.0793 
     98 H98        22.4136    1.2766   -1.8996 H         1 UNK         0.0793 
     99 H99        23.2172   -1.0608   -2.2929 H         1 UNK         0.3024 
    100 H100       24.4219   -2.8042   -1.5575 H         1 UNK         0.1171 
    101 H101       23.5915   -3.8579   -3.6746 H         1 UNK         0.0786 
    102 H102       24.6596   -4.9506   -2.8115 H         1 UNK         0.0786 
    103 H103       25.2444   -4.0856   -4.2306 H         1 UNK         0.0786 
    104 H104       27.0259   -3.6266   -2.6204 H         1 UNK         0.2977 
    105 H105       26.7588   -0.3832   -5.3188 H         1 UNK         0.3127 
    106 H106       29.1646    1.0222   -5.6586 H         1 UNK         0.0770 
    107 H107       26.5863    1.9636   -4.3004 H         1 UNK         0.0814 
    108 H108       28.1978    2.6081   -4.0217 H         1 UNK         0.0814 
    109 H109       27.8233    0.9569   -3.5513 H         1 UNK         0.0814 
    110 H110       25.9522    1.6691   -7.0558 H         1 UNK         0.2983 
    111 H111       26.7331    4.1922   -8.2863 H         1 UNK         0.0947 
    112 H112       24.4838    4.0217   -9.3564 H         1 UNK         0.0806 
    113 H113       24.3886    3.7956   -7.6165 H         1 UNK         0.0806 
    114 H114       24.2740    2.4067   -8.6915 H         1 UNK         0.0806 
    115 H115       26.0298    0.8660   -9.5376 H         1 UNK         0.3000 
    116 H116       26.5652    1.6275  -12.2412 H         1 UNK         0.0850 
    117 H117       26.1256   -0.7706  -12.7224 H         1 UNK         0.0810 
    118 H118       24.9112   -0.1135  -11.6362 H         1 UNK         0.0810 
    119 H119       26.1900   -1.1491  -11.0063 H         1 UNK         0.0810 
    120 H120       28.4895   -0.3040   -9.8864 H         1 UNK         0.3040 
    121 H121       30.6655   -0.6193  -11.9131 H         1 UNK         0.0766 
    122 H122       31.4621   -2.4262  -10.4273 H         1 UNK         0.0812 
    123 H123       29.7994   -2.7224  -10.9114 H         1 UNK         0.0812 
    124 H124       30.1558   -2.1251   -9.2935 H         1 UNK         0.0812 
    125 H125       30.0590    0.2146   -8.5085 H         1 UNK         0.3205 
    126 H126       30.9728    1.5193   -7.0065 H         1 UNK         0.0754 
    127 H127       32.2615    3.5227   -7.5863 H         1 UNK         0.0769 
    128 H128       31.0064    3.3107   -8.7901 H         1 UNK         0.0769 
    129 H129       32.6733    2.8773   -9.1669 H         1 UNK         0.0769 
    130 H130       32.9421    2.0790   -5.7795 H         1 UNK         0.2981 
    131 H131       35.2373    0.2378   -6.2023 H         1 UNK         0.0541 
    132 H132       34.6192    3.3976   -6.5239 H         1 UNK         0.3459 
    133 H133       36.0563    4.0327   -5.7687 H         1 UNK         0.3459 
    134 H134       33.7259    0.7003   -3.5793 H         1 UNK         0.0612 
    135 H135       35.3162   -0.0064   -3.6509 H         1 UNK         0.0612 
    136 H136       31.9254   -0.8229   -3.0864 H         1 UNK         0.0624 
    137 H137       31.4813   -0.7213   -4.7762 H         1 UNK         0.0624 
@<TRIPOS>BOND
     1    1    2 1    
     2    1   72 1    
     3    1   73 1    
     4    1   74 1    
     5    2    3 2    
     6    2    4 am   BACKBONE|DICT|INTERRES
     7    4    5 1    
     8    4   75 1    
     9    5    6 1    
    10    5   35 1    
    11    5   76 1    
    12    6    7 1    
    13    6   77 1    
    14    6   78 1    
    15    7    8 1    
    16    8    9 1    
    17    8   79 1    
    18    8   80 1    
    19    9   10 ar   
    20    9   14 ar   
    21   10   11 ar   
    22   10   81 1    
    23   11   12 ar   
    24   11   71 1    
    25   12   13 ar   
    26   12   82 1    
    27   13   14 ar   
    28   13   15 1    
    29   14   83 1    
    30   15   16 1    
    31   15   84 1    
    32   15   85 1    
    33   16   17 1    
    34   17   18 1    
    35   17   86 1    
    36   17   87 1    
    37   18   19 1    
    38   18   37 1    
    39   18   88 1    
    40   19   20 am   BACKBONE|DICT|INTERRES
    41   19   89 1    
    42   20   21 2    
    43   20   22 1    
    44   22   23 1    
    45   22   24 1    
    46   22   90 1    
    47   23   91 1    
    48   23   92 1    
    49   23   93 1    
    50   24   25 am   BACKBONE|DICT|INTERRES
    51   24   94 1    
    52   25   26 2    
    53   25   27 1    
    54   27   28 1    
    55   27   29 1    
    56   27   95 1    
    57   28   96 1    
    58   28   97 1    
    59   28   98 1    
    60   29   30 am   BACKBONE|DICT|INTERRES
    61   29   99 1    
    62   30   31 2    
    63   30   32 1    
    64   32   33 1    
    65   32   34 1    
    66   32  100 1    
    67   33  101 1    
    68   33  102 1    
    69   33  103 1    
    70   34   35 am   BACKBONE|DICT|INTERRES
    71   34  104 1    
    72   35   36 2    
    73   37   38 2    
    74   37   39 am   BACKBONE|DICT|INTERRES
    75   39   40 1    
    76   39  105 1    
    77   40   41 1    
    78   40   42 1    
    79   40  106 1    
    80   41  107 1    
    81   41  108 1    
    82   41  109 1    
    83   42   43 2    
    84   42   44 am   BACKBONE|DICT|INTERRES
    85   44   45 1    
    86   44  110 1    
    87   45   46 1    
    88   45   47 1    
    89   45  111 1    
    90   46  112 1    
    91   46  113 1    
    92   46  114 1    
    93   47   48 2    
    94   47   49 am   BACKBONE|DICT|INTERRES
    95   49   50 1    
    96   49  115 1    
    97   50   51 1    
    98   50   52 1    
    99   50  116 1    
   100   51  117 1    
   101   51  118 1    
   102   51  119 1    
   103   52   53 2    
   104   52   54 am   BACKBONE|DICT|INTERRES
   105   54   55 1    
   106   54  120 1    
   107   55   56 1    
   108   55   57 1    
   109   55  121 1    
   110   56  122 1    
   111   56  123 1    
   112   56  124 1    
   113   57   58 2    
   114   57   59 am   BACKBONE|DICT|INTERRES
   115   59   60 1    
   116   59  125 1    
   117   60   61 1    
   118   60   62 1    
   119   60  126 1    
   120   61  127 1    
   121   61  128 1    
   122   61  129 1    
   123   62   63 2    
   124   62   64 am   BACKBONE|DICT|INTERRES
   125   64   65 1    
   126   64  130 1    
   127   65   66 1    
   128   65   69 1    
   129   65  131 1    
   130   66   67 am   BACKBONE|DICT|INTERRES
   131   66   68 2    
   132   67  132 1    
   133   67  133 1    
   134   69   70 1    
   135   69  134 1    
   136   69  135 1    
   137   70   71 1    
   138   71  136 1    
   139   71  137 1    
@<TRIPOS>SUBSTRUCTURE
     1 UNK         1 GROUP             0       ****    0 ROOT    
