@<TRIPOS>MOLECULE
3R137
137   139    1
SMALL
USER_CHARGES


@<TRIPOS>ATOM
      1 CA         23.5744   -5.7064   -3.3754 C.3       0 UNK        -0.2020 
      2 C          24.8826   -4.9305   -3.3684 C.2       0 UNK         0.4855 
      3 O          25.2048   -4.2717   -4.3563 O.2       0 UNK        -0.5197 
      4 N          25.6286   -4.9946   -2.2561 N.am      1 UNK        -0.4892 
      5 CA         26.9326   -4.3498   -2.0421 C.3       1 UNK         0.0835 
      6 C6         28.0607   -5.0036   -2.8945 C.3       12 UNK        -0.0855 
      7 S7         29.6142   -5.1998   -1.9541 S.3       12 UNK        -0.2931 
      8 C8         30.8705   -5.1143   -3.2734 C.3       12 UNK         0.0378 
      9 C9         31.5953   -3.7749   -3.2917 C.ar      12 UNK        -0.0802 
     10 C10        32.9838   -3.7173   -3.1276 C.ar      12 UNK        -0.0944 
     11 C11        33.6549   -2.4904   -3.1692 C.ar      12 UNK        -0.0787 
     12 C12        32.9254   -1.3126   -3.3558 C.ar      12 UNK        -0.0862 
     13 C13        31.5424   -1.3601   -3.5417 C.ar      12 UNK        -0.0733 
     14 C14        30.8848   -2.5920   -3.5076 C.ar      12 UNK        -0.0832 
     15 C15        30.7627   -0.0983   -3.8641 C.3       12 UNK         0.0240 
     16 S16        29.5491    0.3151   -2.5737 S.3       12 UNK        -0.2522 
     17 C17        28.5591    1.6475   -3.3407 C.3       12 UNK        -0.0967 
     18 CA         28.2363    1.4825   -4.8508 C.3       5 UNK         0.0660 
     19 N          27.6164    0.1935   -5.1841 N.am      5 UNK        -0.4015 
     20 C          27.4826   -0.2751   -6.4346 C.2       4 UNK         0.4946 
     21 O          27.9523    0.2816   -7.4270 O.2       4 UNK        -0.5353 
     22 CA         26.6581   -1.5580   -6.6323 C.3       4 UNK         0.0277 
     23 CB         27.5522   -2.8024   -6.5343 C.3       4 UNK        -0.1981 
     24 N          25.5377   -1.6628   -5.6947 N.am      4 UNK        -0.4209 
     25 C          24.4908   -0.8232   -5.6849 C.2       3 UNK         0.4942 
     26 O          24.3315    0.0776   -6.5072 O.2       3 UNK        -0.5208 
     27 CA         23.4870   -0.9621   -4.5297 C.3       3 UNK         0.0250 
     28 CB         22.4588   -2.0671   -4.8173 C.3       3 UNK        -0.1990 
     29 N          24.1521   -1.2025   -3.2468 N.am      3 UNK        -0.4232 
     30 C          24.9539   -0.3148   -2.6391 C.2       2 UNK         0.4993 
     31 O          25.1663    0.8183   -3.0710 O.2       2 UNK        -0.5286 
     32 CA         25.6726   -0.7741   -1.3589 C.3       2 UNK         0.0209 
     33 CB         24.8465   -0.4064   -0.1164 C.3       2 UNK        -0.1931 
     34 N          25.9765   -2.2091   -1.3400 N.am      2 UNK        -0.4546 
     35 C          26.8215   -2.8141   -2.1884 C.2       1 UNK         0.5154 
     36 O          27.4123   -2.2151   -3.0882 O.2       1 UNK        -0.5181 
     37 C          27.3843    2.6604   -5.3586 C.2       5 UNK         0.5014 
     38 O          27.9293    3.5649   -5.9915 O.2       5 UNK        -0.5248 
     39 N          26.0669    2.6173   -5.1076 N.am      6 UNK        -0.4434 
     40 CA         25.0958    3.6165   -5.5666 C.3       6 UNK         0.0363 
     41 CB         23.7189    3.3174   -4.9529 C.3       6 UNK        -0.1936 
     42 C          25.0000    3.7112   -7.1001 C.2       6 UNK         0.5081 
     43 O          24.9078    4.8162   -7.6350 O.2       6 UNK        -0.5248 
     44 N          25.0546    2.5580   -7.7794 N.am      7 UNK        -0.4718 
     45 CA         25.0869    2.4470   -9.2405 C.3       7 UNK         0.0273 
     46 CB         24.6995    1.0115   -9.6340 C.3       7 UNK        -0.1935 
     47 C          26.4480    2.8121   -9.8637 C.2       7 UNK         0.5018 
     48 O          26.5109    2.9863  -11.0813 O.2       7 UNK        -0.5186 
     49 N          27.5054    2.8842   -9.0393 N.am      8 UNK        -0.4240 
     50 CA         28.9187    3.0466   -9.4063 C.3       8 UNK         0.0235 
     51 CB         29.1772    4.4352  -10.0282 C.3       8 UNK        -0.2000 
     52 C          29.4451    1.8836  -10.2739 C.2       8 UNK         0.4941 
     53 O          30.2802    2.0939  -11.1554 O.2       8 UNK        -0.5273 
     54 N          28.9437    0.6728   -9.9997 N.am      9 UNK        -0.4262 
     55 CA         29.3234   -0.5778  -10.6580 C.3       9 UNK         0.0264 
     56 CB         28.0975   -1.5057  -10.6905 C.3       9 UNK        -0.1955 
     57 C          30.5013   -1.2707   -9.9511 C.2       9 UNK         0.5031 
     58 O          31.1336   -2.1420  -10.5495 O.2       9 UNK        -0.5390 
     59 N          30.7711   -0.8803   -8.7014 N.am      10 UNK        -0.4204 
     60 CA         31.8631   -1.3501   -7.8566 C.3       10 UNK         0.0237 
     61 CB         31.3103   -2.4400   -6.9210 C.3       10 UNK        -0.1985 
     62 C          32.4068   -0.1344   -7.0794 C.2       10 UNK         0.4970 
     63 O          31.6739    0.8466   -6.9391 O.2       10 UNK        -0.4914 
     64 N          33.6424   -0.1497   -6.5571 N.am      11 UNK        -0.4285 
     65 CA         34.6632   -1.2118   -6.6350 C.3       11 UNK         0.1007 
     66 C          35.3785   -1.3324   -8.0137 C.2       11 UNK         0.5703 
     67 N          35.2120   -0.3859   -8.9299 N.am      11 UNK        -0.7361 
     68 O          36.0775   -2.3107   -8.2627 O.2       11 UNK        -0.4986 
     69 C69        35.6882   -1.0819   -5.4670 C.3       12 UNK        -0.0947 
     70 S70        36.0129   -2.6695   -4.6250 S.3       12 UNK        -0.2240 
     71 C71        35.1691   -2.4398   -3.0246 C.3       12 UNK         0.0194 
     72 H72        23.5245   -6.3460   -4.2561 H         1 UNK         0.0906 
     73 H73        23.4694   -6.3381   -2.4936 H         1 UNK         0.0906 
     74 H74        22.7289   -5.0201   -3.4048 H         1 UNK         0.0906 
     75 H75        25.2922   -5.5456   -1.4775 H         1 UNK         0.3140 
     76 H76        27.1618   -4.5282   -0.9899 H         1 UNK         0.1085 
     77 H77        28.2322   -4.4709   -3.8302 H         1 UNK         0.0836 
     78 H78        27.7655   -6.0095   -3.1974 H         1 UNK         0.0836 
     79 H79        30.4177   -5.2968   -4.2489 H         1 UNK         0.0731 
     80 H80        31.5811   -5.9270   -3.1154 H         1 UNK         0.0731 
     81 H81        33.5481   -4.6282   -2.9811 H         1 UNK         0.1312 
     82 H82        33.4375   -0.3615   -3.3893 H         1 UNK         0.1406 
     83 H83        29.8160   -2.6275   -3.6593 H         1 UNK         0.1631 
     84 H84        30.2601   -0.2785   -4.8112 H         1 UNK         0.0717 
     85 H85        31.4283    0.7523   -4.0182 H         1 UNK         0.0717 
     86 H86        27.6393    1.7383   -2.7609 H         1 UNK         0.0934 
     87 H87        29.0991    2.5830   -3.1811 H         1 UNK         0.0934 
     88 H88        29.1748    1.5479   -5.4046 H         1 UNK         0.0739 
     89 H89        27.2578   -0.3579   -4.4137 H         1 UNK         0.3093 
     90 H90        26.2365   -1.5260   -7.6388 H         1 UNK         0.0818 
     91 H91        28.0714   -2.8521   -5.5779 H         1 UNK         0.0819 
     92 H92        26.9736   -3.7192   -6.6493 H         1 UNK         0.0819 
     93 H93        28.3099   -2.7966   -7.3184 H         1 UNK         0.0819 
     94 H94        25.5765   -2.4161   -5.0127 H         1 UNK         0.3041 
     95 H95        22.9468   -0.0166   -4.4468 H         1 UNK         0.0784 
     96 H96        21.8976   -1.8428   -5.7255 H         1 UNK         0.0793 
     97 H97        22.9315   -3.0375   -4.9645 H         1 UNK         0.0793 
     98 H98        21.7364   -2.1615   -4.0064 H         1 UNK         0.0793 
     99 H99        24.0555   -2.1209   -2.8405 H         1 UNK         0.3024 
    100 H100       26.6214   -0.2341   -1.3130 H         1 UNK         0.1171 
    101 H101       25.3854   -0.6401    0.8020 H         1 UNK         0.0786 
    102 H102       24.6269    0.6622   -0.0973 H         1 UNK         0.0786 
    103 H103       23.8931   -0.9355   -0.0922 H         1 UNK         0.0786 
    104 H104       25.5006   -2.7686   -0.6466 H         1 UNK         0.2977 
    105 H105       25.7038    1.8619   -4.5283 H         1 UNK         0.3127 
    106 H106       25.4282    4.5890   -5.1974 H         1 UNK         0.0770 
    107 H107       23.3345    2.3502   -5.2773 H         1 UNK         0.0814 
    108 H108       22.9890    4.0735   -5.2452 H         1 UNK         0.0814 
    109 H109       23.7625    3.3112   -3.8636 H         1 UNK         0.0814 
    110 H110       25.0376    1.6844   -7.2568 H         1 UNK         0.2983 
    111 H111       24.3439    3.1312   -9.6562 H         1 UNK         0.0947 
    112 H112       24.6705    0.8945  -10.7182 H         1 UNK         0.0806 
    113 H113       23.7125    0.7480   -9.2533 H         1 UNK         0.0806 
    114 H114       25.4128    0.2833   -9.2458 H         1 UNK         0.0806 
    115 H115       27.3354    2.7271   -8.0534 H         1 UNK         0.3000 
    116 H116       29.4770    2.9963   -8.4698 H         1 UNK         0.0850 
    117 H117       30.2451    4.6078  -10.1669 H         1 UNK         0.0810 
    118 H118       28.8017    5.2319   -9.3861 H         1 UNK         0.0810 
    119 H119       28.7029    4.5378  -11.0046 H         1 UNK         0.0810 
    120 H120       28.3300    0.5885   -9.1901 H         1 UNK         0.3040 
    121 H121       29.6263   -0.3703  -11.6865 H         1 UNK         0.0766 
    122 H122       27.2647   -1.0431  -11.2205 H         1 UNK         0.0812 
    123 H123       27.7564   -1.7588   -9.6862 H         1 UNK         0.0812 
    124 H124       28.3287   -2.4408  -11.2024 H         1 UNK         0.0812 
    125 H125       30.2349   -0.1183   -8.3021 H         1 UNK         0.3205 
    126 H126       32.6518   -1.7662   -8.4832 H         1 UNK         0.0754 
    127 H127       32.0587   -2.7998   -6.2165 H         1 UNK         0.0769 
    128 H128       30.9637   -3.3041   -7.4879 H         1 UNK         0.0769 
    129 H129       30.4683   -2.0714   -6.3368 H         1 UNK         0.0769 
    130 H130       33.9474    0.6851   -6.0807 H         1 UNK         0.2981 
    131 H131       34.1382   -2.1568   -6.5076 H         1 UNK         0.0541 
    132 H132       34.6606    0.4337   -8.7324 H         1 UNK         0.3459 
    133 H133       35.6749   -0.4782   -9.8206 H         1 UNK         0.3459 
    134 H134       35.3470   -0.3648   -4.7204 H         1 UNK         0.0612 
    135 H135       36.6432   -0.6792   -5.8106 H         1 UNK         0.0612 
    136 H136       35.4828   -1.4970   -2.5739 H         1 UNK         0.0624 
    137 H137       35.4976   -3.2248   -2.3419 H         1 UNK         0.0624 
@<TRIPOS>BOND
     1    1    2 1    
     2    1   72 1    
     3    1   73 1    
     4    1   74 1    
     5    2    3 2    
     6    2    4 am   BACKBONE|DICT|INTERRES
     7    4    5 1    
     8    4   75 1    
     9    5    6 1    
    10    5   35 1    
    11    5   76 1    
    12    6    7 1    
    13    6   77 1    
    14    6   78 1    
    15    7    8 1    
    16    8    9 1    
    17    8   79 1    
    18    8   80 1    
    19    9   10 ar   
    20    9   14 ar   
    21   10   11 ar   
    22   10   81 1    
    23   11   12 ar   
    24   11   71 1    
    25   12   13 ar   
    26   12   82 1    
    27   13   14 ar   
    28   13   15 1    
    29   14   83 1    
    30   15   16 1    
    31   15   84 1    
    32   15   85 1    
    33   16   17 1    
    34   17   18 1    
    35   17   86 1    
    36   17   87 1    
    37   18   19 1    
    38   18   37 1    
    39   18   88 1    
    40   19   20 am   BACKBONE|DICT|INTERRES
    41   19   89 1    
    42   20   21 2    
    43   20   22 1    
    44   22   23 1    
    45   22   24 1    
    46   22   90 1    
    47   23   91 1    
    48   23   92 1    
    49   23   93 1    
    50   24   25 am   BACKBONE|DICT|INTERRES
    51   24   94 1    
    52   25   26 2    
    53   25   27 1    
    54   27   28 1    
    55   27   29 1    
    56   27   95 1    
    57   28   96 1    
    58   28   97 1    
    59   28   98 1    
    60   29   30 am   BACKBONE|DICT|INTERRES
    61   29   99 1    
    62   30   31 2    
    63   30   32 1    
    64   32   33 1    
    65   32   34 1    
    66   32  100 1    
    67   33  101 1    
    68   33  102 1    
    69   33  103 1    
    70   34   35 am   BACKBONE|DICT|INTERRES
    71   34  104 1    
    72   35   36 2    
    73   37   38 2    
    74   37   39 am   BACKBONE|DICT|INTERRES
    75   39   40 1    
    76   39  105 1    
    77   40   41 1    
    78   40   42 1    
    79   40  106 1    
    80   41  107 1    
    81   41  108 1    
    82   41  109 1    
    83   42   43 2    
    84   42   44 am   BACKBONE|DICT|INTERRES
    85   44   45 1    
    86   44  110 1    
    87   45   46 1    
    88   45   47 1    
    89   45  111 1    
    90   46  112 1    
    91   46  113 1    
    92   46  114 1    
    93   47   48 2    
    94   47   49 am   BACKBONE|DICT|INTERRES
    95   49   50 1    
    96   49  115 1    
    97   50   51 1    
    98   50   52 1    
    99   50  116 1    
   100   51  117 1    
   101   51  118 1    
   102   51  119 1    
   103   52   53 2    
   104   52   54 am   BACKBONE|DICT|INTERRES
   105   54   55 1    
   106   54  120 1    
   107   55   56 1    
   108   55   57 1    
   109   55  121 1    
   110   56  122 1    
   111   56  123 1    
   112   56  124 1    
   113   57   58 2    
   114   57   59 am   BACKBONE|DICT|INTERRES
   115   59   60 1    
   116   59  125 1    
   117   60   61 1    
   118   60   62 1    
   119   60  126 1    
   120   61  127 1    
   121   61  128 1    
   122   61  129 1    
   123   62   63 2    
   124   62   64 am   BACKBONE|DICT|INTERRES
   125   64   65 1    
   126   64  130 1    
   127   65   66 1    
   128   65   69 1    
   129   65  131 1    
   130   66   67 am   BACKBONE|DICT|INTERRES
   131   66   68 2    
   132   67  132 1    
   133   67  133 1    
   134   69   70 1    
   135   69  134 1    
   136   69  135 1    
   137   70   71 1    
   138   71  136 1    
   139   71  137 1    
@<TRIPOS>SUBSTRUCTURE
     1 UNK         1 GROUP             0       ****    0 ROOT    
