@<TRIPOS>MOLECULE
3R137
137   139    1
SMALL
USER_CHARGES


@<TRIPOS>ATOM
      1 CA         25.3799   -5.4957   -2.7817 C.3       0 UNK        -0.2020 
      2 C          25.4904   -4.8941   -1.3885 C.2       0 UNK         0.4855 
      3 O          24.6656   -5.1885   -0.5234 O.2       0 UNK        -0.5197 
      4 N          26.5106   -4.0583   -1.1645 N.am      1 UNK        -0.4892 
      5 CA         26.7743   -3.3528    0.0976 C.3       1 UNK         0.0835 
      6 C6         28.2494   -2.8765    0.1947 C.3       12 UNK        -0.0855 
      7 S7         28.8732   -2.0831   -1.3342 S.3       12 UNK        -0.2931 
      8 C8         30.1322   -3.2913   -1.8514 C.3       12 UNK         0.0378 
      9 C9         30.4988   -3.1443   -3.3209 C.ar      12 UNK        -0.0802 
     10 C10        31.2853   -2.0710   -3.7508 C.ar      12 UNK        -0.0944 
     11 C11        31.6679   -1.9616   -5.0918 C.ar      12 UNK        -0.0787 
     12 C12        31.2692   -2.9483   -6.0001 C.ar      12 UNK        -0.0862 
     13 C13        30.4768   -4.0229   -5.5855 C.ar      12 UNK        -0.0733 
     14 C14        30.0874   -4.1094   -4.2455 C.ar      12 UNK        -0.0832 
     15 C15        30.0858   -5.1208   -6.5687 C.3       12 UNK         0.0240 
     16 S16        28.9679   -4.5445   -7.8868 S.3       12 UNK        -0.2522 
     17 C17        27.4654   -4.0964   -6.9509 C.3       12 UNK        -0.0967 
     18 CA         26.7121   -2.8925   -7.5796 C.3       5 UNK         0.0660 
     19 N          25.3527   -2.7069   -7.0639 N.am      5 UNK        -0.4015 
     20 C          24.9895   -2.4981   -5.7924 C.2       4 UNK         0.4946 
     21 O          25.7578   -2.5533   -4.8282 O.2       4 UNK        -0.5353 
     22 CA         23.5170   -2.1234   -5.5655 C.3       4 UNK         0.0277 
     23 CB         22.7722   -3.2634   -4.8526 C.3       4 UNK        -0.1981 
     24 N          23.3870   -0.8987   -4.7751 N.am      4 UNK        -0.4209 
     25 C          23.9297    0.2950   -5.0660 C.2       3 UNK         0.4942 
     26 O          24.5708    0.5303   -6.0908 O.2       3 UNK        -0.5208 
     27 CA         23.7347    1.4119   -4.0225 C.3       3 UNK         0.0250 
     28 CB         22.4875    2.2475   -4.3515 C.3       3 UNK        -0.1990 
     29 N          23.6286    0.8791   -2.6586 N.am      3 UNK        -0.4232 
     30 C          24.6647    0.3474   -1.9951 C.2       2 UNK         0.4993 
     31 O          25.8286    0.4288   -2.3883 O.2       2 UNK        -0.5286 
     32 CA         24.3701   -0.4426   -0.7122 C.3       2 UNK         0.0209 
     33 CB         22.9010   -0.8931   -0.5586 C.3       2 UNK        -0.1931 
     34 N          25.2474   -1.6098   -0.7185 N.am      2 UNK        -0.4546 
     35 C          25.7892   -2.1918    0.3550 C.2       1 UNK         0.5154 
     36 O          25.5431   -1.8500    1.5134 O.2       1 UNK        -0.5181 
     37 C          27.5237   -1.5820   -7.5265 C.2       5 UNK         0.5014 
     38 O          27.9372   -1.0898   -8.5777 O.2       5 UNK        -0.5248 
     39 N          27.7269   -1.0396   -6.3190 N.am      6 UNK        -0.4434 
     40 CA         28.6203    0.0799   -6.0186 C.3       6 UNK         0.0363 
     41 CB         28.5643    0.3967   -4.5197 C.3       6 UNK        -0.1936 
     42 C          28.3765    1.3519   -6.8432 C.2       6 UNK         0.5081 
     43 O          29.3501    1.9723   -7.2675 O.2       6 UNK        -0.5248 
     44 N          27.1073    1.7053   -7.0954 N.am      7 UNK        -0.4718 
     45 CA         26.7382    2.8816   -7.8927 C.3       7 UNK         0.0273 
     46 CB         25.2343    3.1600   -7.7412 C.3       7 UNK        -0.1935 
     47 C          27.1170    2.7706   -9.3815 C.2       7 UNK         0.5018 
     48 O          27.2943    3.8036  -10.0286 O.2       7 UNK        -0.5186 
     49 N          27.2345    1.5389   -9.8956 N.am      8 UNK        -0.4240 
     50 CA         27.6697    1.2525  -11.2621 C.3       8 UNK         0.0235 
     51 CB         26.8841    0.0480  -11.8080 C.3       8 UNK        -0.2000 
     52 C          29.1803    0.9835  -11.3152 C.2       8 UNK         0.4941 
     53 O          29.8556    1.4983  -12.2070 O.2       8 UNK        -0.5273 
     54 N          29.6782    0.1714  -10.3731 N.am      9 UNK        -0.4262 
     55 CA         31.0679   -0.2798  -10.3059 C.3       9 UNK         0.0264 
     56 CB         31.1500   -1.4908   -9.3675 C.3       9 UNK        -0.1955 
     57 C          32.0597    0.8041   -9.8573 C.2       9 UNK         0.5031 
     58 O          33.2128    0.7659  -10.2903 O.2       9 UNK        -0.5390 
     59 N          31.6204    1.7211   -8.9820 N.am      10 UNK        -0.4204 
     60 CA         32.3548    2.8374   -8.3676 C.3       10 UNK         0.0237 
     61 CB         32.8591    3.8359   -9.4281 C.3       10 UNK        -0.1985 
     62 C          33.4868    2.4273   -7.4060 C.2       10 UNK         0.4970 
     63 O          33.5974    3.0247   -6.3351 O.2       10 UNK        -0.4914 
     64 N          34.3041    1.4417   -7.7990 N.am      11 UNK        -0.4285 
     65 CA         35.4960    0.9443   -7.0873 C.3       11 UNK         0.1007 
     66 C          36.6507    1.9882   -6.9580 C.2       11 UNK         0.5703 
     67 N          36.6822    3.0420   -7.7660 N.am      11 UNK        -0.7361 
     68 O          37.5551    1.8291   -6.1410 O.2       11 UNK        -0.4986 
     69 C69        35.1526    0.2444   -5.7390 C.3       12 UNK        -0.0947 
     70 S70        34.2088   -1.3022   -5.9551 S.3       12 UNK        -0.2240 
     71 C71        32.5141   -0.7813   -5.5521 C.3       12 UNK         0.0194 
     72 H72        26.0160   -4.9777   -3.4997 H         1 UNK         0.0906 
     73 H73        25.6721   -6.5452   -2.7607 H         1 UNK         0.0906 
     74 H74        24.3526   -5.4371   -3.1388 H         1 UNK         0.0906 
     75 H75        27.1486   -3.8302   -1.9153 H         1 UNK         0.3140 
     76 H76        26.6090   -4.0638    0.9105 H         1 UNK         0.1085 
     77 H77        28.3869   -2.1845    1.0283 H         1 UNK         0.0836 
     78 H78        28.8807   -3.7322    0.4381 H         1 UNK         0.0836 
     79 H79        29.7688   -4.3022   -1.6595 H         1 UNK         0.0731 
     80 H80        31.0244   -3.1651   -1.2362 H         1 UNK         0.0731 
     81 H81        31.6007   -1.3233   -3.0359 H         1 UNK         0.1312 
     82 H82        31.5902   -2.8934   -7.0294 H         1 UNK         0.1406 
     83 H83        29.4864   -4.9460   -3.9159 H         1 UNK         0.1631 
     84 H84        29.6168   -5.9595   -6.0517 H         1 UNK         0.0717 
     85 H85        30.9911   -5.5177   -7.0300 H         1 UNK         0.0717 
     86 H86        26.8149   -4.9719   -6.9332 H         1 UNK         0.0934 
     87 H87        27.7213   -3.8949   -5.9103 H         1 UNK         0.0934 
     88 H88        26.5739   -3.1207   -8.6380 H         1 UNK         0.0739 
     89 H89        24.6423   -2.6164   -7.7766 H         1 UNK         0.3093 
     90 H90        23.0386   -1.9437   -6.5304 H         1 UNK         0.0818 
     91 H91        21.7066   -3.0497   -4.7668 H         1 UNK         0.0819 
     92 H92        22.8701   -4.2009   -5.4019 H         1 UNK         0.0819 
     93 H93        23.1621   -3.4306   -3.8478 H         1 UNK         0.0819 
     94 H94        22.8949   -0.9868   -3.9002 H         1 UNK         0.3041 
     95 H95        24.6075    2.0669   -4.0744 H         1 UNK         0.0784 
     96 H96        22.5567    2.6691   -5.3555 H         1 UNK         0.0793 
     97 H97        21.5756    1.6505   -4.3111 H         1 UNK         0.0793 
     98 H98        22.3752    3.0817   -3.6588 H         1 UNK         0.0793 
     99 H99        22.7030    0.8083   -2.2606 H         1 UNK         0.3024 
    100 H100       24.6346    0.2070    0.1254 H         1 UNK         0.1171 
    101 H101       22.2260   -0.0404   -0.4776 H         1 UNK         0.0786 
    102 H102       22.5738   -1.5069   -1.3988 H         1 UNK         0.0786 
    103 H103       22.7672   -1.4838    0.3480 H         1 UNK         0.0786 
    104 H104       25.5755   -1.8996   -1.6310 H         1 UNK         0.2977 
    105 H105       27.2704   -1.4889   -5.5296 H         1 UNK         0.3127 
    106 H106       29.6283   -0.2634   -6.2520 H         1 UNK         0.0770 
    107 H107       27.5850    0.7784   -4.2328 H         1 UNK         0.0814 
    108 H108       29.3025    1.1533   -4.2514 H         1 UNK         0.0814 
    109 H109       28.7704   -0.4870   -3.9164 H         1 UNK         0.0814 
    110 H110       26.3449    1.1443   -6.7225 H         1 UNK         0.2983 
    111 H111       27.2816    3.7385   -7.4883 H         1 UNK         0.0947 
    112 H112       24.9469    4.0621   -8.2831 H         1 UNK         0.0806 
    113 H113       24.9610    3.3093   -6.6965 H         1 UNK         0.0806 
    114 H114       24.6319    2.3391   -8.1322 H         1 UNK         0.0806 
    115 H115       27.1260    0.7451   -9.2749 H         1 UNK         0.3000 
    116 H116       27.4588    2.1082  -11.9075 H         1 UNK         0.0850 
    117 H117       27.1883   -0.1846  -12.8294 H         1 UNK         0.0810 
    118 H118       25.8134    0.2516  -11.8276 H         1 UNK         0.0810 
    119 H119       27.0424   -0.8493  -11.2082 H         1 UNK         0.0810 
    120 H120       29.0368   -0.2406   -9.6957 H         1 UNK         0.3040 
    121 H121       31.3679   -0.6031  -11.3051 H         1 UNK         0.0766 
    122 H122       32.1772   -1.8437   -9.2633 H         1 UNK         0.0812 
    123 H123       30.5545   -2.3242   -9.7409 H         1 UNK         0.0812 
    124 H124       30.7809   -1.2394   -8.3735 H         1 UNK         0.0812 
    125 H125       30.6677    1.6310   -8.6358 H         1 UNK         0.3205 
    126 H126       31.6168    3.3636   -7.7601 H         1 UNK         0.0754 
    127 H127       33.3108    4.7093   -8.9559 H         1 UNK         0.0769 
    128 H128       32.0405    4.1931  -10.0532 H         1 UNK         0.0769 
    129 H129       33.6118    3.3961  -10.0828 H         1 UNK         0.0769 
    130 H130       34.1305    1.0411   -8.7181 H         1 UNK         0.2981 
    131 H131       35.9155    0.1803   -7.7426 H         1 UNK         0.0541 
    132 H132       37.4379    3.7037   -7.6837 H         1 UNK         0.3459 
    133 H133       35.9621    3.1791   -8.4563 H         1 UNK         0.3459 
    134 H134       34.6296    0.9219   -5.0637 H         1 UNK         0.0612 
    135 H135       36.0652   -0.0426   -5.2143 H         1 UNK         0.0612 
    136 H136       32.0654   -0.3189   -6.4318 H         1 UNK         0.0624 
    137 H137       32.5364   -0.0129   -4.7782 H         1 UNK         0.0624 
@<TRIPOS>BOND
     1    1    2 1    
     2    1   72 1    
     3    1   73 1    
     4    1   74 1    
     5    2    3 2    
     6    2    4 am   BACKBONE|DICT|INTERRES
     7    4    5 1    
     8    4   75 1    
     9    5    6 1    
    10    5   35 1    
    11    5   76 1    
    12    6    7 1    
    13    6   77 1    
    14    6   78 1    
    15    7    8 1    
    16    8    9 1    
    17    8   79 1    
    18    8   80 1    
    19    9   10 ar   
    20    9   14 ar   
    21   10   11 ar   
    22   10   81 1    
    23   11   12 ar   
    24   11   71 1    
    25   12   13 ar   
    26   12   82 1    
    27   13   14 ar   
    28   13   15 1    
    29   14   83 1    
    30   15   16 1    
    31   15   84 1    
    32   15   85 1    
    33   16   17 1    
    34   17   18 1    
    35   17   86 1    
    36   17   87 1    
    37   18   19 1    
    38   18   37 1    
    39   18   88 1    
    40   19   20 am   BACKBONE|DICT|INTERRES
    41   19   89 1    
    42   20   21 2    
    43   20   22 1    
    44   22   23 1    
    45   22   24 1    
    46   22   90 1    
    47   23   91 1    
    48   23   92 1    
    49   23   93 1    
    50   24   25 am   BACKBONE|DICT|INTERRES
    51   24   94 1    
    52   25   26 2    
    53   25   27 1    
    54   27   28 1    
    55   27   29 1    
    56   27   95 1    
    57   28   96 1    
    58   28   97 1    
    59   28   98 1    
    60   29   30 am   BACKBONE|DICT|INTERRES
    61   29   99 1    
    62   30   31 2    
    63   30   32 1    
    64   32   33 1    
    65   32   34 1    
    66   32  100 1    
    67   33  101 1    
    68   33  102 1    
    69   33  103 1    
    70   34   35 am   BACKBONE|DICT|INTERRES
    71   34  104 1    
    72   35   36 2    
    73   37   38 2    
    74   37   39 am   BACKBONE|DICT|INTERRES
    75   39   40 1    
    76   39  105 1    
    77   40   41 1    
    78   40   42 1    
    79   40  106 1    
    80   41  107 1    
    81   41  108 1    
    82   41  109 1    
    83   42   43 2    
    84   42   44 am   BACKBONE|DICT|INTERRES
    85   44   45 1    
    86   44  110 1    
    87   45   46 1    
    88   45   47 1    
    89   45  111 1    
    90   46  112 1    
    91   46  113 1    
    92   46  114 1    
    93   47   48 2    
    94   47   49 am   BACKBONE|DICT|INTERRES
    95   49   50 1    
    96   49  115 1    
    97   50   51 1    
    98   50   52 1    
    99   50  116 1    
   100   51  117 1    
   101   51  118 1    
   102   51  119 1    
   103   52   53 2    
   104   52   54 am   BACKBONE|DICT|INTERRES
   105   54   55 1    
   106   54  120 1    
   107   55   56 1    
   108   55   57 1    
   109   55  121 1    
   110   56  122 1    
   111   56  123 1    
   112   56  124 1    
   113   57   58 2    
   114   57   59 am   BACKBONE|DICT|INTERRES
   115   59   60 1    
   116   59  125 1    
   117   60   61 1    
   118   60   62 1    
   119   60  126 1    
   120   61  127 1    
   121   61  128 1    
   122   61  129 1    
   123   62   63 2    
   124   62   64 am   BACKBONE|DICT|INTERRES
   125   64   65 1    
   126   64  130 1    
   127   65   66 1    
   128   65   69 1    
   129   65  131 1    
   130   66   67 am   BACKBONE|DICT|INTERRES
   131   66   68 2    
   132   67  132 1    
   133   67  133 1    
   134   69   70 1    
   135   69  134 1    
   136   69  135 1    
   137   70   71 1    
   138   71  136 1    
   139   71  137 1    
@<TRIPOS>SUBSTRUCTURE
     1 UNK         1 GROUP             0       ****    0 ROOT    
