@<TRIPOS>MOLECULE
3R137
137   139    1
SMALL
USER_CHARGES


@<TRIPOS>ATOM
      1 CA         26.0977   -7.7848   -3.4043 C.3       0 UNK        -0.2020 
      2 C          26.1964   -6.6261   -2.4231 C.2       0 UNK         0.4855 
      3 O          25.5235   -6.6390   -1.3915 O.2       0 UNK        -0.5197 
      4 N          27.0357   -5.6297   -2.7326 N.am      1 UNK        -0.4892 
      5 CA         27.1921   -4.3979   -1.9501 C.3       1 UNK         0.0835 
      6 C6         28.5556   -3.7219   -2.2413 C.3       12 UNK        -0.0855 
      7 S7         29.2542   -2.9027   -0.7696 S.3       12 UNK        -0.2931 
      8 C8         31.0169   -2.8231   -1.2276 C.3       12 UNK         0.0378 
      9 C9         31.2183   -1.9620   -2.4645 C.ar      12 UNK        -0.0802 
     10 C10        31.4176   -2.5510   -3.7167 C.ar      12 UNK        -0.0944 
     11 C11        31.5444   -1.7575   -4.8605 C.ar      12 UNK        -0.0787 
     12 C12        31.4483   -0.3675   -4.7469 C.ar      12 UNK        -0.0862 
     13 C13        31.2444    0.2326   -3.5000 C.ar      12 UNK        -0.0733 
     14 C14        31.1624   -0.5707   -2.3586 C.ar      12 UNK        -0.0832 
     15 C15        31.0904    1.7468   -3.4009 C.3       12 UNK         0.0240 
     16 S16        29.6423    2.2853   -2.4186 S.3       12 UNK        -0.2522 
     17 C17        28.2890    1.1660   -2.9331 C.3       12 UNK        -0.0967 
     18 CA         28.0188    1.1192   -4.4575 C.3       5 UNK         0.0660 
     19 N          27.2721   -0.0797   -4.8368 N.am      5 UNK        -0.4015 
     20 C          27.2604   -0.6057   -6.0696 C.2       4 UNK         0.4946 
     21 O          27.9387   -0.1741   -7.0018 O.2       4 UNK        -0.5353 
     22 CA         26.3092   -1.7897   -6.3226 C.3       4 UNK         0.0277 
     23 CB         27.0361   -3.1256   -6.1024 C.3       4 UNK        -0.1981 
     24 N          25.0980   -1.7429   -5.4964 N.am      4 UNK        -0.4209 
     25 C          24.1499   -0.8000   -5.6130 C.2       3 UNK         0.4942 
     26 O          24.1738    0.0829   -6.4680 O.2       3 UNK        -0.5208 
     27 CA         23.0153   -0.7894   -4.5734 C.3       3 UNK         0.0250 
     28 CB         21.8219   -1.6164   -5.0757 C.3       3 UNK        -0.1990 
     29 N          23.4131   -1.2650   -3.2467 N.am      3 UNK        -0.4232 
     30 C          24.4210   -0.7829   -2.5052 C.2       2 UNK         0.4993 
     31 O          25.1350    0.1600   -2.8520 O.2       2 UNK        -0.5286 
     32 CA         24.7167   -1.5100   -1.1795 C.3       2 UNK         0.0209 
     33 CB         23.4768   -2.2074   -0.5765 C.3       2 UNK        -0.1931 
     34 N          25.8270   -2.4707   -1.2762 N.am      2 UNK        -0.4546 
     35 C          26.0047   -3.4381   -2.1902 C.2       1 UNK         0.5154 
     36 O          25.2942   -3.5832   -3.1903 O.2       1 UNK        -0.5181 
     37 C          27.2992    2.3825   -4.9579 C.2       5 UNK         0.5014 
     38 O          27.9524    3.2653   -5.5138 O.2       5 UNK        -0.5248 
     39 N          25.9665    2.4260   -4.7997 N.am      6 UNK        -0.4434 
     40 CA         25.1074    3.5135   -5.2822 C.3       6 UNK         0.0363 
     41 CB         23.6692    3.2987   -4.7857 C.3       6 UNK        -0.1936 
     42 C          25.1377    3.6723   -6.8138 C.2       6 UNK         0.5081 
     43 O          25.1994    4.7989   -7.3060 O.2       6 UNK        -0.5248 
     44 N          25.1273    2.5437   -7.5360 N.am      7 UNK        -0.4718 
     45 CA         25.2715    2.4805   -8.9931 C.3       7 UNK         0.0273 
     46 CB         24.7529    1.1183   -9.4837 C.3       7 UNK        -0.1935 
     47 C          26.7163    2.6977   -9.4810 C.2       7 UNK         0.5018 
     48 O          26.9046    2.9394  -10.6739 O.2       7 UNK        -0.5186 
     49 N          27.6964    2.5850   -8.5702 N.am      8 UNK        -0.4240 
     50 CA         29.1456    2.6189   -8.7991 C.3       8 UNK         0.0235 
     51 CB         29.6034    4.0289   -9.2272 C.3       8 UNK        -0.2000 
     52 C          29.5973    1.5115   -9.7698 C.2       8 UNK         0.4941 
     53 O          30.2743    1.7867  -10.7642 O.2       8 UNK        -0.5273 
     54 N          29.1902    0.2702   -9.4732 N.am      9 UNK        -0.4262 
     55 CA         29.4432   -0.9302  -10.2723 C.3       9 UNK         0.0264 
     56 CB         28.4228   -2.0119   -9.8724 C.3       9 UNK        -0.1955 
     57 C          30.9013   -1.4122  -10.1429 C.2       9 UNK         0.5031 
     58 O          31.1496   -2.4887   -9.5972 O.2       9 UNK        -0.5390 
     59 N          31.8310   -0.5917  -10.6487 N.am      10 UNK        -0.4204 
     60 CA         33.2873   -0.7433  -10.5963 C.3       10 UNK         0.0237 
     61 CB         33.7514   -2.0061  -11.3612 C.3       10 UNK        -0.1985 
     62 C          33.8122   -0.6288   -9.1510 C.2       10 UNK         0.4970 
     63 O          33.3984    0.2900   -8.4409 O.2       10 UNK        -0.4914 
     64 N          34.7336   -1.5210   -8.7633 N.am      11 UNK        -0.4285 
     65 CA         35.4477   -1.5462   -7.4720 C.3       11 UNK         0.1007 
     66 C          36.4820   -0.3934   -7.2821 C.2       11 UNK         0.5703 
     67 N          36.8665    0.3323   -8.3261 N.am      11 UNK        -0.7361 
     68 O          36.9759   -0.1715   -6.1788 O.2       11 UNK        -0.4986 
     69 C69        34.5131   -1.7111   -6.2380 C.3       12 UNK        -0.0947 
     70 S70        33.4189   -3.1685   -6.3455 S.3       12 UNK        -0.2240 
     71 C71        31.7707   -2.4022   -6.2212 C.3       12 UNK         0.0194 
     72 H72        25.0764   -7.8772   -3.7728 H         1 UNK         0.0906 
     73 H73        26.7563   -7.6512   -4.2624 H         1 UNK         0.0906 
     74 H74        26.3683   -8.7184   -2.9116 H         1 UNK         0.0906 
     75 H75        27.5315   -5.6590   -3.6115 H         1 UNK         0.3140 
     76 H76        27.1641   -4.6890   -0.8970 H         1 UNK         0.1085 
     77 H77        28.4947   -3.0006   -3.0584 H         1 UNK         0.0836 
     78 H78        29.2810   -4.4717   -2.5622 H         1 UNK         0.0836 
     79 H79        31.4014   -3.8317   -1.3877 H         1 UNK         0.0731 
     80 H80        31.5846   -2.4072   -0.3939 H         1 UNK         0.0731 
     81 H81        31.4693   -3.6275   -3.8062 H         1 UNK         0.1312 
     82 H82        31.5262    0.2460   -5.6346 H         1 UNK         0.1406 
     83 H83        30.9990   -0.1150   -1.3912 H         1 UNK         0.1631 
     84 H84        31.9924    2.1630   -2.9508 H         1 UNK         0.0717 
     85 H85        31.0142    2.1922   -4.3942 H         1 UNK         0.0717 
     86 H86        28.5313    0.1664   -2.5698 H         1 UNK         0.0934 
     87 H87        27.3894    1.4519   -2.3852 H         1 UNK         0.0934 
     88 H88        28.9743    1.0709   -4.9796 H         1 UNK         0.0739 
     89 H89        26.6217   -0.4326   -4.1448 H         1 UNK         0.3093 
     90 H90        26.0025   -1.7393   -7.3696 H         1 UNK         0.0818 
     91 H91        27.9428   -3.1863   -6.7049 H         1 UNK         0.0819 
     92 H92        26.4046   -3.9698   -6.3795 H         1 UNK         0.0819 
     93 H93        27.3312   -3.2574   -5.0631 H         1 UNK         0.0819 
     94 H94        25.0201   -2.4283   -4.7482 H         1 UNK         0.3041 
     95 H95        22.6877    0.2446   -4.4574 H         1 UNK         0.0784 
     96 H96        21.4898   -1.2671   -6.0546 H         1 UNK         0.0793 
     97 H97        22.0760   -2.6726   -5.1750 H         1 UNK         0.0793 
     98 H98        20.9701   -1.5367   -4.3999 H         1 UNK         0.0793 
     99 H99        22.9227   -2.0746   -2.8951 H         1 UNK         0.3024 
    100 H100       25.0310   -0.7335   -0.4797 H         1 UNK         0.1171 
    101 H101       23.6819   -2.5547    0.4363 H         1 UNK         0.0786 
    102 H102       22.6291   -1.5235   -0.5115 H         1 UNK         0.0786 
    103 H103       23.1634   -3.0747   -1.1589 H         1 UNK         0.0786 
    104 H104       26.5189   -2.3989   -0.5416 H         1 UNK         0.2977 
    105 H105       25.5146    1.6649   -4.3043 H         1 UNK         0.3127 
    106 H106       25.4822    4.4419   -4.8460 H         1 UNK         0.0770 
    107 H107       23.6314    3.1908   -3.7015 H         1 UNK         0.0814 
    108 H108       23.2176    2.4121   -5.2300 H         1 UNK         0.0814 
    109 H109       23.0383    4.1484   -5.0498 H         1 UNK         0.0814 
    110 H110       24.9800    1.6565   -7.0576 H         1 UNK         0.2983 
    111 H111       24.6546    3.2648   -9.4374 H         1 UNK         0.0947 
    112 H112       24.8023    1.0471  -10.5711 H         1 UNK         0.0806 
    113 H113       23.7132    0.9620   -9.1955 H         1 UNK         0.0806 
    114 H114       25.3405    0.2948   -9.0751 H         1 UNK         0.0806 
    115 H115       27.4186    2.3962   -7.6161 H         1 UNK         0.3000 
    116 H116       29.6133    2.3964   -7.8385 H         1 UNK         0.0850 
    117 H117       30.6904    4.0789   -9.3015 H         1 UNK         0.0810 
    118 H118       29.2925    4.7813   -8.5022 H         1 UNK         0.0810 
    119 H119       29.1982    4.3111  -10.1994 H         1 UNK         0.0810 
    120 H120       28.6814    0.1275   -8.5996 H         1 UNK         0.3040 
    121 H121       29.2716   -0.6872  -11.3231 H         1 UNK         0.0766 
    122 H122       27.3990   -1.6648  -10.0125 H         1 UNK         0.0812 
    123 H123       28.5382   -2.3019   -8.8282 H         1 UNK         0.0812 
    124 H124       28.5482   -2.9108  -10.4773 H         1 UNK         0.0812 
    125 H125       31.4932    0.3126  -10.9720 H         1 UNK         0.3205 
    126 H126       33.6921    0.1209  -11.1248 H         1 UNK         0.0754 
    127 H127       34.8360   -2.0265  -11.4740 H         1 UNK         0.0769 
    128 H128       33.3312   -2.0285  -12.3668 H         1 UNK         0.0769 
    129 H129       33.4505   -2.9272  -10.8604 H         1 UNK         0.0769 
    130 H130       35.0059   -2.2371   -9.4203 H         1 UNK         0.2981 
    131 H131       36.0635   -2.4449   -7.5161 H         1 UNK         0.0541 
    132 H132       36.4881    0.1553   -9.2421 H         1 UNK         0.3459 
    133 H133       37.5448    1.0656   -8.1923 H         1 UNK         0.3459 
    134 H134       35.1026   -1.8303   -5.3275 H         1 UNK         0.0612 
    135 H135       33.9220   -0.8074   -6.0903 H         1 UNK         0.0612 
    136 H136       31.0099   -3.1650   -6.3911 H         1 UNK         0.0624 
    137 H137       31.6555   -1.6706   -7.0222 H         1 UNK         0.0624 
@<TRIPOS>BOND
     1    1    2 1    
     2    1   72 1    
     3    1   73 1    
     4    1   74 1    
     5    2    3 2    
     6    2    4 am   BACKBONE|DICT|INTERRES
     7    4    5 1    
     8    4   75 1    
     9    5    6 1    
    10    5   35 1    
    11    5   76 1    
    12    6    7 1    
    13    6   77 1    
    14    6   78 1    
    15    7    8 1    
    16    8    9 1    
    17    8   79 1    
    18    8   80 1    
    19    9   10 ar   
    20    9   14 ar   
    21   10   11 ar   
    22   10   81 1    
    23   11   12 ar   
    24   11   71 1    
    25   12   13 ar   
    26   12   82 1    
    27   13   14 ar   
    28   13   15 1    
    29   14   83 1    
    30   15   16 1    
    31   15   84 1    
    32   15   85 1    
    33   16   17 1    
    34   17   18 1    
    35   17   86 1    
    36   17   87 1    
    37   18   19 1    
    38   18   37 1    
    39   18   88 1    
    40   19   20 am   BACKBONE|DICT|INTERRES
    41   19   89 1    
    42   20   21 2    
    43   20   22 1    
    44   22   23 1    
    45   22   24 1    
    46   22   90 1    
    47   23   91 1    
    48   23   92 1    
    49   23   93 1    
    50   24   25 am   BACKBONE|DICT|INTERRES
    51   24   94 1    
    52   25   26 2    
    53   25   27 1    
    54   27   28 1    
    55   27   29 1    
    56   27   95 1    
    57   28   96 1    
    58   28   97 1    
    59   28   98 1    
    60   29   30 am   BACKBONE|DICT|INTERRES
    61   29   99 1    
    62   30   31 2    
    63   30   32 1    
    64   32   33 1    
    65   32   34 1    
    66   32  100 1    
    67   33  101 1    
    68   33  102 1    
    69   33  103 1    
    70   34   35 am   BACKBONE|DICT|INTERRES
    71   34  104 1    
    72   35   36 2    
    73   37   38 2    
    74   37   39 am   BACKBONE|DICT|INTERRES
    75   39   40 1    
    76   39  105 1    
    77   40   41 1    
    78   40   42 1    
    79   40  106 1    
    80   41  107 1    
    81   41  108 1    
    82   41  109 1    
    83   42   43 2    
    84   42   44 am   BACKBONE|DICT|INTERRES
    85   44   45 1    
    86   44  110 1    
    87   45   46 1    
    88   45   47 1    
    89   45  111 1    
    90   46  112 1    
    91   46  113 1    
    92   46  114 1    
    93   47   48 2    
    94   47   49 am   BACKBONE|DICT|INTERRES
    95   49   50 1    
    96   49  115 1    
    97   50   51 1    
    98   50   52 1    
    99   50  116 1    
   100   51  117 1    
   101   51  118 1    
   102   51  119 1    
   103   52   53 2    
   104   52   54 am   BACKBONE|DICT|INTERRES
   105   54   55 1    
   106   54  120 1    
   107   55   56 1    
   108   55   57 1    
   109   55  121 1    
   110   56  122 1    
   111   56  123 1    
   112   56  124 1    
   113   57   58 2    
   114   57   59 am   BACKBONE|DICT|INTERRES
   115   59   60 1    
   116   59  125 1    
   117   60   61 1    
   118   60   62 1    
   119   60  126 1    
   120   61  127 1    
   121   61  128 1    
   122   61  129 1    
   123   62   63 2    
   124   62   64 am   BACKBONE|DICT|INTERRES
   125   64   65 1    
   126   64  130 1    
   127   65   66 1    
   128   65   69 1    
   129   65  131 1    
   130   66   67 am   BACKBONE|DICT|INTERRES
   131   66   68 2    
   132   67  132 1    
   133   67  133 1    
   134   69   70 1    
   135   69  134 1    
   136   69  135 1    
   137   70   71 1    
   138   71  136 1    
   139   71  137 1    
@<TRIPOS>SUBSTRUCTURE
     1 UNK         1 GROUP             0       ****    0 ROOT    
