@<TRIPOS>MOLECULE
3R137
137   139    1
SMALL
USER_CHARGES


@<TRIPOS>ATOM
      1 CA         29.9388    0.2693   -0.6523 C.3       0 UNK        -0.2020 
      2 C          29.2506   -0.8195   -1.4606 C.2       0 UNK         0.4855 
      3 O          29.1188   -0.6818   -2.6748 O.2       0 UNK        -0.5197 
      4 N          28.8117   -1.8967   -0.7943 N.am      1 UNK        -0.4892 
      5 CA         28.1954   -3.0747   -1.4237 C.3       1 UNK         0.0835 
      6 C6         28.2046   -4.3233   -0.4976 C.3       12 UNK        -0.0855 
      7 S7         29.7913   -4.6355    0.3564 S.3       12 UNK        -0.2931 
      8 C8         30.6970   -5.6564   -0.8523 C.3       12 UNK         0.0378 
      9 C9         31.0734   -4.8552   -2.0897 C.ar      12 UNK        -0.0802 
     10 C10        31.9454   -3.7680   -1.9817 C.ar      12 UNK        -0.0944 
     11 C11        32.2500   -2.9759   -3.0925 C.ar      12 UNK        -0.0787 
     12 C12        31.6922   -3.3097   -4.3341 C.ar      12 UNK        -0.0862 
     13 C13        30.8177   -4.3948   -4.4556 C.ar      12 UNK        -0.0733 
     14 C14        30.5222   -5.1727   -3.3334 C.ar      12 UNK        -0.0832 
     15 C15        30.1619   -4.7096   -5.7920 C.3       12 UNK         0.0240 
     16 S16        28.4007   -4.2385   -5.8015 S.3       12 UNK        -0.2522 
     17 C17        28.4819   -2.4281   -5.5840 C.3       12 UNK        -0.0967 
     18 CA         27.6662   -1.6779   -6.6614 C.3       5 UNK         0.0660 
     19 N          26.2271   -1.8629   -6.4821 N.am      5 UNK        -0.4015 
     20 C          25.3713   -2.2005   -7.4550 C.2       4 UNK         0.4946 
     21 O          25.7098   -2.4753   -8.6065 O.2       4 UNK        -0.5353 
     22 CA         23.8714   -2.2292   -7.1000 C.3       4 UNK         0.0277 
     23 CB         23.4325   -3.6624   -6.7581 C.3       4 UNK        -0.1981 
     24 N          23.4904   -1.3364   -6.0012 N.am      4 UNK        -0.4209 
     25 C          23.6668   -0.0074   -5.9860 C.2       3 UNK         0.4942 
     26 O          24.1585    0.6316   -6.9144 O.2       3 UNK        -0.5208 
     27 CA         23.3018    0.7295   -4.6867 C.3       3 UNK         0.0250 
     28 CB         21.8327    1.1785   -4.7211 C.3       3 UNK        -0.1990 
     29 N          23.5562   -0.0327   -3.4559 N.am      3 UNK        -0.4232 
     30 C          24.7229   -0.5997   -3.1124 C.2       2 UNK         0.4993 
     31 O          25.7169   -0.5962   -3.8436 O.2       2 UNK        -0.5286 
     32 CA         24.7726   -1.2589   -1.7206 C.3       2 UNK         0.0209 
     33 CB         23.6888   -2.3476   -1.5540 C.3       2 UNK        -0.1931 
     34 N          26.1045   -1.7799   -1.3808 N.am      2 UNK        -0.4546 
     35 C          26.7627   -2.8105   -1.9367 C.2       1 UNK         0.5154 
     36 O          26.2877   -3.5535   -2.7966 O.2       1 UNK        -0.5181 
     37 C          28.0068   -0.1780   -6.6496 C.2       5 UNK         0.5014 
     38 O          28.7715    0.2684   -7.5073 O.2       5 UNK        -0.5248 
     39 N          27.4542    0.5721   -5.6854 N.am      6 UNK        -0.4434 
     40 CA         27.7850    1.9742   -5.4312 C.3       6 UNK         0.0363 
     41 CB         27.1977    2.4090   -4.0793 C.3       6 UNK        -0.1936 
     42 C          27.3525    2.9310   -6.5521 C.2       6 UNK         0.5081 
     43 O          28.1592    3.7623   -6.9685 O.2       6 UNK        -0.5248 
     44 N          26.1109    2.7980   -7.0435 N.am      7 UNK        -0.4718 
     45 CA         25.5811    3.6374   -8.1272 C.3       7 UNK         0.0273 
     46 CB         24.0440    3.6350   -8.0973 C.3       7 UNK        -0.1935 
     47 C          26.1011    3.2008   -9.5062 C.2       7 UNK         0.5018 
     48 O          26.1734    4.0273  -10.4158 O.2       7 UNK        -0.5186 
     49 N          26.4811    1.9213   -9.6262 N.am      8 UNK        -0.4240 
     50 CA         27.1493    1.3523  -10.7979 C.3       8 UNK         0.0235 
     51 CB         27.0068   -0.1779  -10.7558 C.3       8 UNK        -0.2000 
     52 C          28.6359    1.7454  -10.8969 C.2       8 UNK         0.4941 
     53 O          29.2233    1.5688  -11.9648 O.2       8 UNK        -0.5273 
     54 N          29.2149    2.2422   -9.7909 N.am      9 UNK        -0.4262 
     55 CA         30.6315    2.5632   -9.5864 C.3       9 UNK         0.0264 
     56 CB         31.0684    3.7482  -10.4737 C.3       9 UNK        -0.1955 
     57 C          31.5313    1.3213   -9.7379 C.2       9 UNK         0.5031 
     58 O          32.5803    1.3873  -10.3821 O.2       9 UNK        -0.5390 
     59 N          31.0941    0.2016   -9.1435 N.am      10 UNK        -0.4204 
     60 CA         31.7736   -1.0968   -9.2003 C.3       10 UNK         0.0237 
     61 CB         30.7790   -2.1987   -8.8068 C.3       10 UNK        -0.1985 
     62 C          33.0435   -1.1771   -8.3318 C.2       10 UNK         0.4970 
     63 O          33.8297   -2.1080   -8.5119 O.2       10 UNK        -0.4914 
     64 N          33.2285   -0.2170   -7.4211 N.am      11 UNK        -0.4285 
     65 CA         34.4161   -0.0530   -6.5796 C.3       11 UNK         0.1007 
     66 C          34.7092    1.4492   -6.3175 C.2       11 UNK         0.5703 
     67 N          35.8697    1.7677   -5.7600 N.am      11 UNK        -0.7361 
     68 O          33.8997    2.3282   -6.6135 O.2       11 UNK        -0.4986 
     69 C69        34.3501   -0.9161   -5.2890 C.3       12 UNK        -0.0947 
     70 S70        33.0132   -0.4461   -4.1371 S.3       12 UNK        -0.2240 
     71 C71        33.1679   -1.7690   -2.8890 C.3       12 UNK         0.0194 
     72 H72        29.3907    1.2066   -0.7436 H         1 UNK         0.0906 
     73 H73        30.0056    0.0140    0.4051 H         1 UNK         0.0906 
     74 H74        30.9495    0.4277   -1.0280 H         1 UNK         0.0906 
     75 H75        28.9738   -1.9735    0.2002 H         1 UNK         0.3140 
     76 H76        28.7868   -3.3051   -2.3110 H         1 UNK         0.1085 
     77 H77        27.4454   -4.2192    0.2804 H         1 UNK         0.0836 
     78 H78        27.9278   -5.2145   -1.0644 H         1 UNK         0.0836 
     79 H79        30.0978   -6.5305   -1.1121 H         1 UNK         0.0731 
     80 H80        31.6068   -6.0349   -0.3844 H         1 UNK         0.0731 
     81 H81        32.3616   -3.5187   -1.0149 H         1 UNK         0.1312 
     82 H82        31.9128   -2.7141   -5.2080 H         1 UNK         0.1406 
     83 H83        29.8340   -6.0023   -3.4259 H         1 UNK         0.1631 
     84 H84        30.2419   -5.7792   -5.9911 H         1 UNK         0.0717 
     85 H85        30.6805   -4.2091   -6.6098 H         1 UNK         0.0717 
     86 H86        28.1137   -2.1863   -4.5862 H         1 UNK         0.0934 
     87 H87        29.5240   -2.1076   -5.5991 H         1 UNK         0.0934 
     88 H88        27.9713   -2.0593   -7.6378 H         1 UNK         0.0739 
     89 H89        25.8623   -1.6395   -5.5619 H         1 UNK         0.3093 
     90 H90        23.3248   -1.9036   -7.9876 H         1 UNK         0.0818 
     91 H91        23.6771   -4.3492   -7.5699 H         1 UNK         0.0819 
     92 H92        23.9284   -4.0319   -5.8593 H         1 UNK         0.0819 
     93 H93        22.3557   -3.7229   -6.5994 H         1 UNK         0.0819 
     94 H94        23.0940   -1.7703   -5.1805 H         1 UNK         0.3041 
     95 H95        23.9235    1.6251   -4.6430 H         1 UNK         0.0784 
     96 H96        21.6247    1.7641   -5.6182 H         1 UNK         0.0793 
     97 H97        21.1492    0.3285   -4.7210 H         1 UNK         0.0793 
     98 H98        21.5885    1.8072   -3.8646 H         1 UNK         0.0793 
     99 H99        22.7902   -0.0784   -2.7992 H         1 UNK         0.3024 
    100 H100       24.5702   -0.4673   -0.9970 H         1 UNK         0.1171 
    101 H101       23.7843   -2.8568   -0.5949 H         1 UNK         0.0786 
    102 H102       22.6860   -1.9212   -1.5872 H         1 UNK         0.0786 
    103 H103       23.7436   -3.1031   -2.3386 H         1 UNK         0.0786 
    104 H104       26.6253   -1.2311   -0.7114 H         1 UNK         0.2977 
    105 H105       26.8488    0.1247   -4.9967 H         1 UNK         0.3127 
    106 H106       28.8727    2.0373   -5.3527 H         1 UNK         0.0770 
    107 H107       26.1098    2.3503   -4.0714 H         1 UNK         0.0814 
    108 H108       27.4719    3.4388   -3.8471 H         1 UNK         0.0814 
    109 H109       27.5712    1.7825   -3.2686 H         1 UNK         0.0814 
    110 H110       25.5099    2.0471   -6.7152 H         1 UNK         0.2983 
    111 H111       25.9144    4.6647   -7.9616 H         1 UNK         0.0947 
    112 H112       23.6449    4.3734   -8.7939 H         1 UNK         0.0806 
    113 H113       23.6620    3.8831   -7.1070 H         1 UNK         0.0806 
    114 H114       23.6313    2.6685   -8.3865 H         1 UNK         0.0806 
    115 H115       26.3661    1.3173   -8.8245 H         1 UNK         0.3000 
    116 H116       26.6502    1.7210  -11.6966 H         1 UNK         0.0850 
    117 H117       27.4510   -0.6368  -11.6401 H         1 UNK         0.0810 
    118 H118       25.9599   -0.4805  -10.7264 H         1 UNK         0.0810 
    119 H119       27.5032   -0.6067   -9.8844 H         1 UNK         0.0810 
    120 H120       28.6392    2.3161   -8.9622 H         1 UNK         0.3040 
    121 H121       30.7233    2.8803   -8.5461 H         1 UNK         0.0766 
    122 H122       31.0556    3.4900  -11.5330 H         1 UNK         0.0812 
    123 H123       32.0835    4.0633  -10.2293 H         1 UNK         0.0812 
    124 H124       30.4180    4.6110  -10.3302 H         1 UNK         0.0812 
    125 H125       30.2242    0.2415   -8.6115 H         1 UNK         0.3205 
    126 H126       32.0793   -1.2713  -10.2341 H         1 UNK         0.0754 
    127 H127       31.2269   -3.1876   -8.9126 H         1 UNK         0.0769 
    128 H128       29.8886   -2.1767   -9.4357 H         1 UNK         0.0769 
    129 H129       30.4635   -2.0908   -7.7706 H         1 UNK         0.0769 
    130 H130       32.5620    0.5395   -7.3557 H         1 UNK         0.2981 
    131 H131       35.2701   -0.4022   -7.1634 H         1 UNK         0.0541 
    132 H132       36.5422    1.0594   -5.5111 H         1 UNK         0.3459 
    133 H133       36.0753    2.7382   -5.5815 H         1 UNK         0.3459 
    134 H134       35.2984   -0.8610   -4.7522 H         1 UNK         0.0612 
    135 H135       34.2256   -1.9662   -5.5570 H         1 UNK         0.0612 
    136 H136       32.9466   -1.3182   -1.9203 H         1 UNK         0.0624 
    137 H137       34.2025   -2.1104   -2.8373 H         1 UNK         0.0624 
@<TRIPOS>BOND
     1    1    2 1    
     2    1   72 1    
     3    1   73 1    
     4    1   74 1    
     5    2    3 2    
     6    2    4 am   BACKBONE|DICT|INTERRES
     7    4    5 1    
     8    4   75 1    
     9    5    6 1    
    10    5   35 1    
    11    5   76 1    
    12    6    7 1    
    13    6   77 1    
    14    6   78 1    
    15    7    8 1    
    16    8    9 1    
    17    8   79 1    
    18    8   80 1    
    19    9   10 ar   
    20    9   14 ar   
    21   10   11 ar   
    22   10   81 1    
    23   11   12 ar   
    24   11   71 1    
    25   12   13 ar   
    26   12   82 1    
    27   13   14 ar   
    28   13   15 1    
    29   14   83 1    
    30   15   16 1    
    31   15   84 1    
    32   15   85 1    
    33   16   17 1    
    34   17   18 1    
    35   17   86 1    
    36   17   87 1    
    37   18   19 1    
    38   18   37 1    
    39   18   88 1    
    40   19   20 am   BACKBONE|DICT|INTERRES
    41   19   89 1    
    42   20   21 2    
    43   20   22 1    
    44   22   23 1    
    45   22   24 1    
    46   22   90 1    
    47   23   91 1    
    48   23   92 1    
    49   23   93 1    
    50   24   25 am   BACKBONE|DICT|INTERRES
    51   24   94 1    
    52   25   26 2    
    53   25   27 1    
    54   27   28 1    
    55   27   29 1    
    56   27   95 1    
    57   28   96 1    
    58   28   97 1    
    59   28   98 1    
    60   29   30 am   BACKBONE|DICT|INTERRES
    61   29   99 1    
    62   30   31 2    
    63   30   32 1    
    64   32   33 1    
    65   32   34 1    
    66   32  100 1    
    67   33  101 1    
    68   33  102 1    
    69   33  103 1    
    70   34   35 am   BACKBONE|DICT|INTERRES
    71   34  104 1    
    72   35   36 2    
    73   37   38 2    
    74   37   39 am   BACKBONE|DICT|INTERRES
    75   39   40 1    
    76   39  105 1    
    77   40   41 1    
    78   40   42 1    
    79   40  106 1    
    80   41  107 1    
    81   41  108 1    
    82   41  109 1    
    83   42   43 2    
    84   42   44 am   BACKBONE|DICT|INTERRES
    85   44   45 1    
    86   44  110 1    
    87   45   46 1    
    88   45   47 1    
    89   45  111 1    
    90   46  112 1    
    91   46  113 1    
    92   46  114 1    
    93   47   48 2    
    94   47   49 am   BACKBONE|DICT|INTERRES
    95   49   50 1    
    96   49  115 1    
    97   50   51 1    
    98   50   52 1    
    99   50  116 1    
   100   51  117 1    
   101   51  118 1    
   102   51  119 1    
   103   52   53 2    
   104   52   54 am   BACKBONE|DICT|INTERRES
   105   54   55 1    
   106   54  120 1    
   107   55   56 1    
   108   55   57 1    
   109   55  121 1    
   110   56  122 1    
   111   56  123 1    
   112   56  124 1    
   113   57   58 2    
   114   57   59 am   BACKBONE|DICT|INTERRES
   115   59   60 1    
   116   59  125 1    
   117   60   61 1    
   118   60   62 1    
   119   60  126 1    
   120   61  127 1    
   121   61  128 1    
   122   61  129 1    
   123   62   63 2    
   124   62   64 am   BACKBONE|DICT|INTERRES
   125   64   65 1    
   126   64  130 1    
   127   65   66 1    
   128   65   69 1    
   129   65  131 1    
   130   66   67 am   BACKBONE|DICT|INTERRES
   131   66   68 2    
   132   67  132 1    
   133   67  133 1    
   134   69   70 1    
   135   69  134 1    
   136   69  135 1    
   137   70   71 1    
   138   71  136 1    
   139   71  137 1    
@<TRIPOS>SUBSTRUCTURE
     1 UNK         1 GROUP             0       ****    0 ROOT    
