@<TRIPOS>MOLECULE
3R137
137   139    1
SMALL
USER_CHARGES


@<TRIPOS>ATOM
      1 CA         30.4391   -4.5271    2.2018 C.3       0 UNK        -0.2020 
      2 C          29.7999   -3.9165    0.9637 C.2       0 UNK         0.4855 
      3 O          29.9355   -2.7143    0.7338 O.2       0 UNK        -0.5197 
      4 N          29.1142   -4.7367    0.1587 N.am      1 UNK        -0.4892 
      5 CA         28.3966   -4.3119   -1.0481 C.3       1 UNK         0.0835 
      6 C6         28.0841   -5.5081   -1.9856 C.3       12 UNK        -0.0855 
      7 S7         29.4965   -6.5821   -2.4402 S.3       12 UNK        -0.2931 
      8 C8         30.8996   -5.4371   -2.6986 C.3       12 UNK         0.0378 
      9 C9         30.6474   -4.3503   -3.7411 C.ar      12 UNK        -0.0802 
     10 C10        31.1534   -3.0633   -3.5260 C.ar      12 UNK        -0.0944 
     11 C11        30.9436   -2.0487   -4.4644 C.ar      12 UNK        -0.0787 
     12 C12        30.2122   -2.3235   -5.6206 C.ar      12 UNK        -0.0862 
     13 C13        29.7026   -3.6033   -5.8505 C.ar      12 UNK        -0.0733 
     14 C14        29.9369   -4.6167   -4.9179 C.ar      12 UNK        -0.0832 
     15 C15        28.8841   -3.8809   -7.1011 C.3       12 UNK         0.0240 
     16 S16        27.1076   -4.0836   -6.7413 S.3       12 UNK        -0.2522 
     17 C17        26.6763   -2.5778   -5.7989 C.3       12 UNK        -0.0967 
     18 CA         26.0279   -1.4701   -6.6695 C.3       5 UNK         0.0660 
     19 N          24.9370   -0.8040   -5.9557 N.am      5 UNK        -0.4015 
     20 C          23.9393   -0.1234   -6.5385 C.2       4 UNK         0.4946 
     21 O          23.8303    0.0117   -7.7577 O.2       4 UNK        -0.5353 
     22 CA         22.9006    0.5391   -5.6128 C.3       4 UNK         0.0277 
     23 CB         21.6431   -0.3386   -5.5064 C.3       4 UNK        -0.1981 
     24 N          23.4078    0.8202   -4.2656 N.am      4 UNK        -0.4209 
     25 C          24.3787    1.7020   -3.9869 C.2       3 UNK         0.4942 
     26 O          24.9192    2.4096   -4.8354 O.2       3 UNK        -0.5208 
     27 CA         24.8731    1.7587   -2.5309 C.3       3 UNK         0.0250 
     28 CB         24.0480    2.7714   -1.7208 C.3       3 UNK        -0.1990 
     29 N          24.8663    0.4581   -1.8474 N.am      3 UNK        -0.4232 
     30 C          25.5572   -0.6192   -2.2458 C.2       2 UNK         0.4993 
     31 O          26.2395   -0.6598   -3.2729 O.2       2 UNK        -0.5286 
     32 CA         25.4232   -1.8809   -1.3911 C.3       2 UNK         0.0209 
     33 CB         24.1880   -2.6960   -1.8187 C.3       2 UNK        -0.1931 
     34 N          26.6331   -2.6821   -1.5595 N.am      2 UNK        -0.4546 
     35 C          27.0915   -3.5754   -0.6768 C.2       1 UNK         0.5154 
     36 O          26.5062   -3.8515    0.3749 O.2       1 UNK        -0.5181 
     37 C          27.0694   -0.4666   -7.2133 C.2       5 UNK         0.5014 
     38 O          27.8414   -0.8325   -8.0990 O.2       5 UNK        -0.5248 
     39 N          27.0513    0.7942   -6.7458 N.am      6 UNK        -0.4434 
     40 CA         27.9055    1.8803   -7.2455 C.3       6 UNK         0.0363 
     41 CB         27.6995    3.1393   -6.3908 C.3       6 UNK        -0.1936 
     42 C          27.6968    2.2036   -8.7385 C.2       6 UNK         0.5081 
     43 O          28.6047    2.7383   -9.3730 O.2       6 UNK        -0.5248 
     44 N          26.5215    1.8554   -9.2817 N.am      7 UNK        -0.4718 
     45 CA         26.2183    1.9232  -10.7118 C.3       7 UNK         0.0273 
     46 CB         24.6938    1.8670  -10.9008 C.3       7 UNK        -0.1935 
     47 C          26.9025    0.8099  -11.5295 C.2       7 UNK         0.5018 
     48 O          27.0971    0.9924  -12.7319 O.2       7 UNK        -0.5186 
     49 N          27.2406   -0.3160  -10.8839 N.am      8 UNK        -0.4240 
     50 CA         27.9177   -1.4585  -11.4983 C.3       8 UNK         0.0235 
     51 CB         27.3772   -2.7676  -10.8975 C.3       8 UNK        -0.2000 
     52 C          29.4404   -1.3638  -11.3256 C.2       8 UNK         0.4941 
     53 O          30.1670   -1.6285  -12.2845 O.2       8 UNK        -0.5273 
     54 N          29.8987   -0.9787  -10.1276 N.am      9 UNK        -0.4262 
     55 CA         31.3071   -0.7719   -9.8031 C.3       9 UNK         0.0264 
     56 CB         31.8973   -2.0471   -9.1742 C.3       9 UNK        -0.1955 
     57 C          31.4088    0.4307   -8.8627 C.2       9 UNK         0.5031 
     58 O          31.0554    0.3176   -7.6889 O.2       9 UNK        -0.5390 
     59 N          31.8683    1.5697   -9.3921 N.am      10 UNK        -0.4204 
     60 CA         32.0173    2.8273   -8.6595 C.3       10 UNK         0.0237 
     61 CB         32.0653    3.9908   -9.6675 C.3       10 UNK        -0.1985 
     62 C          33.2507    2.7970   -7.7390 C.2       10 UNK         0.4970 
     63 O          34.2996    3.3333   -8.1026 O.2       10 UNK        -0.4914 
     64 N          33.1059    2.1437   -6.5800 N.am      11 UNK        -0.4285 
     65 CA         34.1156    2.0523   -5.5135 C.3       11 UNK         0.1007 
     66 C          34.5777    3.4407   -4.9875 C.2       11 UNK         0.5703 
     67 N          35.8566    3.5915   -4.6702 N.am      11 UNK        -0.7361 
     68 O          33.7799    4.3625   -4.8227 O.2       11 UNK        -0.4986 
     69 C69        33.6221    1.1795   -4.3303 C.3       12 UNK        -0.0947 
     70 S70        33.2173   -0.5303   -4.8173 S.3       12 UNK        -0.2240 
     71 C71        31.5009   -0.6546   -4.2297 C.3       12 UNK         0.0194 
     72 H72        31.5172   -4.3693    2.1842 H         1 UNK         0.0906 
     73 H73        30.0401   -4.0568    3.1002 H         1 UNK         0.0906 
     74 H74        30.2547   -5.5992    2.2698 H         1 UNK         0.0906 
     75 H75        29.0166   -5.7125    0.4006 H         1 UNK         0.3140 
     76 H76        29.0273   -3.6000   -1.5831 H         1 UNK         0.1085 
     77 H77        27.6419   -5.1438   -2.9154 H         1 UNK         0.0836 
     78 H78        27.3281   -6.1534   -1.5331 H         1 UNK         0.0836 
     79 H79        31.1741   -4.9945   -1.7403 H         1 UNK         0.0731 
     80 H80        31.7636   -6.0210   -3.0179 H         1 UNK         0.0731 
     81 H81        31.7172   -2.8480   -2.6283 H         1 UNK         0.1312 
     82 H82        30.0310   -1.5370   -6.3401 H         1 UNK         0.1406 
     83 H83        29.5441   -5.6073   -5.1022 H         1 UNK         0.1631 
     84 H84        29.2513   -4.7911   -7.5769 H         1 UNK         0.0717 
     85 H85        29.0183   -3.0871   -7.8352 H         1 UNK         0.0717 
     86 H86        25.9675   -2.9159   -5.0412 H         1 UNK         0.0934 
     87 H87        27.5226   -2.2000   -5.2254 H         1 UNK         0.0934 
     88 H88        25.5788   -1.9455   -7.5446 H         1 UNK         0.0739 
     89 H89        25.0124   -0.8049   -4.9451 H         1 UNK         0.3093 
     90 H90        22.6184    1.4900   -6.0701 H         1 UNK         0.0818 
     91 H91        20.8631    0.1529   -4.9246 H         1 UNK         0.0819 
     92 H92        21.2263   -0.5436   -6.4937 H         1 UNK         0.0819 
     93 H93        21.8583   -1.3000   -5.0381 H         1 UNK         0.0819 
     94 H94        23.0138    0.2846   -3.5058 H         1 UNK         0.3041 
     95 H95        25.9081    2.1065   -2.5569 H         1 UNK         0.0784 
     96 H96        24.0553    3.7520   -2.1994 H         1 UNK         0.0793 
     97 H97        23.0060    2.4629   -1.6264 H         1 UNK         0.0793 
     98 H98        24.4528    2.9015   -0.7170 H         1 UNK         0.0793 
     99 H99        24.3167    0.3991   -1.0015 H         1 UNK         0.3024 
    100 H100       25.3286   -1.5848   -0.3435 H         1 UNK         0.1171 
    101 H101       23.2730   -2.1122   -1.7111 H         1 UNK         0.0786 
    102 H102       24.0707   -3.5904   -1.2064 H         1 UNK         0.0786 
    103 H103       24.2549   -3.0125   -2.8605 H         1 UNK         0.0786 
    104 H104       27.1645   -2.4564   -2.3920 H         1 UNK         0.2977 
    105 H105       26.3794    1.0441   -6.0311 H         1 UNK         0.3127 
    106 H106       28.9394    1.5603   -7.1219 H         1 UNK         0.0770 
    107 H107       26.6905    3.5385   -6.4991 H         1 UNK         0.0814 
    108 H108       28.3936    3.9270   -6.6871 H         1 UNK         0.0814 
    109 H109       27.8707    2.9371   -5.3333 H         1 UNK         0.0814 
    110 H110       25.8203    1.4341   -8.6869 H         1 UNK         0.2983 
    111 H111       26.5771    2.8803  -11.0975 H         1 UNK         0.0947 
    112 H112       24.4278    1.9370  -11.9566 H         1 UNK         0.0806 
    113 H113       24.1995    2.6921  -10.3879 H         1 UNK         0.0806 
    114 H114       24.2737    0.9352  -10.5191 H         1 UNK         0.0806 
    115 H115       27.1192   -0.3589   -9.8780 H         1 UNK         0.3000 
    116 H116       27.7055   -1.4756  -12.5697 H         1 UNK         0.0850 
    117 H117       27.8605   -3.6330  -11.3527 H         1 UNK         0.0810 
    118 H118       26.3055   -2.8677  -11.0694 H         1 UNK         0.0810 
    119 H119       27.5484   -2.8287   -9.8229 H         1 UNK         0.0810 
    120 H120       29.2380   -0.7920   -9.3744 H         1 UNK         0.3040 
    121 H121       31.8715   -0.5470  -10.7107 H         1 UNK         0.0766 
    122 H122       32.9418   -1.8974   -8.8985 H         1 UNK         0.0812 
    123 H123       31.8597   -2.8854   -9.8697 H         1 UNK         0.0812 
    124 H124       31.3627   -2.3387   -8.2711 H         1 UNK         0.0812 
    125 H125       32.1488    1.5793  -10.3620 H         1 UNK         0.3205 
    126 H126       31.1354    2.9747   -8.0317 H         1 UNK         0.0754 
    127 H127       32.1813    4.9462   -9.1539 H         1 UNK         0.0769 
    128 H128       31.1432    4.0466  -10.2469 H         1 UNK         0.0769 
    129 H129       32.8966    3.8920  -10.3667 H         1 UNK         0.0769 
    130 H130       32.2414    1.6400   -6.4246 H         1 UNK         0.2981 
    131 H131       34.9843    1.5602   -5.9553 H         1 UNK         0.0541 
    132 H132       36.5160    2.8379   -4.7883 H         1 UNK         0.3459 
    133 H133       36.1708    4.4799   -4.3121 H         1 UNK         0.3459 
    134 H134       32.7547    1.6426   -3.8560 H         1 UNK         0.0612 
    135 H135       34.3909    1.1175   -3.5578 H         1 UNK         0.0612 
    136 H136       31.4612   -0.4138   -3.1662 H         1 UNK         0.0624 
    137 H137       30.8888    0.0892   -4.7429 H         1 UNK         0.0624 
@<TRIPOS>BOND
     1    1    2 1    
     2    1   72 1    
     3    1   73 1    
     4    1   74 1    
     5    2    3 2    
     6    2    4 am   BACKBONE|DICT|INTERRES
     7    4    5 1    
     8    4   75 1    
     9    5    6 1    
    10    5   35 1    
    11    5   76 1    
    12    6    7 1    
    13    6   77 1    
    14    6   78 1    
    15    7    8 1    
    16    8    9 1    
    17    8   79 1    
    18    8   80 1    
    19    9   10 ar   
    20    9   14 ar   
    21   10   11 ar   
    22   10   81 1    
    23   11   12 ar   
    24   11   71 1    
    25   12   13 ar   
    26   12   82 1    
    27   13   14 ar   
    28   13   15 1    
    29   14   83 1    
    30   15   16 1    
    31   15   84 1    
    32   15   85 1    
    33   16   17 1    
    34   17   18 1    
    35   17   86 1    
    36   17   87 1    
    37   18   19 1    
    38   18   37 1    
    39   18   88 1    
    40   19   20 am   BACKBONE|DICT|INTERRES
    41   19   89 1    
    42   20   21 2    
    43   20   22 1    
    44   22   23 1    
    45   22   24 1    
    46   22   90 1    
    47   23   91 1    
    48   23   92 1    
    49   23   93 1    
    50   24   25 am   BACKBONE|DICT|INTERRES
    51   24   94 1    
    52   25   26 2    
    53   25   27 1    
    54   27   28 1    
    55   27   29 1    
    56   27   95 1    
    57   28   96 1    
    58   28   97 1    
    59   28   98 1    
    60   29   30 am   BACKBONE|DICT|INTERRES
    61   29   99 1    
    62   30   31 2    
    63   30   32 1    
    64   32   33 1    
    65   32   34 1    
    66   32  100 1    
    67   33  101 1    
    68   33  102 1    
    69   33  103 1    
    70   34   35 am   BACKBONE|DICT|INTERRES
    71   34  104 1    
    72   35   36 2    
    73   37   38 2    
    74   37   39 am   BACKBONE|DICT|INTERRES
    75   39   40 1    
    76   39  105 1    
    77   40   41 1    
    78   40   42 1    
    79   40  106 1    
    80   41  107 1    
    81   41  108 1    
    82   41  109 1    
    83   42   43 2    
    84   42   44 am   BACKBONE|DICT|INTERRES
    85   44   45 1    
    86   44  110 1    
    87   45   46 1    
    88   45   47 1    
    89   45  111 1    
    90   46  112 1    
    91   46  113 1    
    92   46  114 1    
    93   47   48 2    
    94   47   49 am   BACKBONE|DICT|INTERRES
    95   49   50 1    
    96   49  115 1    
    97   50   51 1    
    98   50   52 1    
    99   50  116 1    
   100   51  117 1    
   101   51  118 1    
   102   51  119 1    
   103   52   53 2    
   104   52   54 am   BACKBONE|DICT|INTERRES
   105   54   55 1    
   106   54  120 1    
   107   55   56 1    
   108   55   57 1    
   109   55  121 1    
   110   56  122 1    
   111   56  123 1    
   112   56  124 1    
   113   57   58 2    
   114   57   59 am   BACKBONE|DICT|INTERRES
   115   59   60 1    
   116   59  125 1    
   117   60   61 1    
   118   60   62 1    
   119   60  126 1    
   120   61  127 1    
   121   61  128 1    
   122   61  129 1    
   123   62   63 2    
   124   62   64 am   BACKBONE|DICT|INTERRES
   125   64   65 1    
   126   64  130 1    
   127   65   66 1    
   128   65   69 1    
   129   65  131 1    
   130   66   67 am   BACKBONE|DICT|INTERRES
   131   66   68 2    
   132   67  132 1    
   133   67  133 1    
   134   69   70 1    
   135   69  134 1    
   136   69  135 1    
   137   70   71 1    
   138   71  136 1    
   139   71  137 1    
@<TRIPOS>SUBSTRUCTURE
     1 UNK         1 GROUP             0       ****    0 ROOT    
