@<TRIPOS>MOLECULE
3R137
137   139    1
SMALL
USER_CHARGES


@<TRIPOS>ATOM
      1 CA         25.7371   -3.1240    2.2845 C.3       0 UNK        -0.2020 
      2 C          26.0142   -3.5939    0.8642 C.2       0 UNK         0.4855 
      3 O          25.4093   -4.5690    0.4183 O.2       0 UNK        -0.5197 
      4 N          26.9168   -2.8987    0.1553 N.am      1 UNK        -0.4892 
      5 CA         27.3696   -3.1890   -1.2187 C.3       1 UNK         0.0835 
      6 C6         28.0959   -4.5576   -1.3609 C.3       12 UNK        -0.0855 
      7 S7         29.4823   -4.7375   -0.1836 S.3       12 UNK        -0.2931 
      8 C8         30.9202   -4.9090   -1.2926 C.3       12 UNK         0.0378 
      9 C9         31.1977   -3.6726   -2.1432 C.ar      12 UNK        -0.0802 
     10 C10        31.4783   -3.8190   -3.5039 C.ar      12 UNK        -0.0944 
     11 C11        31.7893   -2.7077   -4.2917 C.ar      12 UNK        -0.0787 
     12 C12        31.8056   -1.4348   -3.7141 C.ar      12 UNK        -0.0862 
     13 C13        31.5140   -1.2685   -2.3539 C.ar      12 UNK        -0.0733 
     14 C14        31.2244   -2.3944   -1.5754 C.ar      12 UNK        -0.0832 
     15 C15        31.5286    0.1082   -1.6906 C.3       12 UNK         0.0240 
     16 S16        30.8246    1.4589   -2.6991 S.3       12 UNK        -0.2522 
     17 C17        29.1677    0.8254   -3.1284 C.3       12 UNK        -0.0967 
     18 CA         28.8770    1.0049   -4.6455 C.3       5 UNK         0.0660 
     19 N          28.2493   -0.1796   -5.2258 N.am      5 UNK        -0.4015 
     20 C          28.6289   -0.7631   -6.3713 C.2       4 UNK         0.4946 
     21 O          29.5684   -0.3877   -7.0694 O.2       4 UNK        -0.5353 
     22 CA         27.7717   -1.9405   -6.8637 C.3       4 UNK         0.0277 
     23 CB         28.2322   -3.2508   -6.2071 C.3       4 UNK        -0.1981 
     24 N          26.3397   -1.7463   -6.6222 N.am      4 UNK        -0.4209 
     25 C          25.6267   -0.6825   -7.0229 C.2       3 UNK         0.4942 
     26 O          26.0817    0.2217   -7.7257 O.2       3 UNK        -0.5208 
     27 CA         24.1853   -0.5629   -6.4974 C.3       3 UNK         0.0250 
     28 CB         23.1956   -1.1010   -7.5419 C.3       3 UNK        -0.1990 
     29 N          23.9338   -1.2143   -5.2028 N.am      3 UNK        -0.4232 
     30 C          24.6130   -1.0089   -4.0632 C.2       2 UNK         0.4993 
     31 O          25.5967   -0.2680   -3.9805 O.2       2 UNK        -0.5286 
     32 CA         24.1298   -1.7443   -2.7986 C.3       2 UNK         0.0209 
     33 CB         23.1908   -2.9410   -3.0775 C.3       2 UNK        -0.1931 
     34 N          25.2588   -2.1502   -1.9520 N.am      2 UNK        -0.4546 
     35 C          26.2514   -2.9965   -2.2725 C.2       1 UNK         0.5154 
     36 O          26.3114   -3.5945   -3.3484 O.2       1 UNK        -0.5181 
     37 C          28.0151    2.2541   -4.9083 C.2       5 UNK         0.5014 
     38 O          28.5416    3.2652   -5.3721 O.2       5 UNK        -0.5248 
     39 N          26.7098    2.1716   -4.6060 N.am      6 UNK        -0.4434 
     40 CA         25.7767    3.3031   -4.5793 C.3       6 UNK         0.0363 
     41 CB         24.4588    2.8670   -3.9190 C.3       6 UNK        -0.1936 
     42 C          25.5051    3.9381   -5.9513 C.2       6 UNK         0.5081 
     43 O          25.3682    5.1592   -6.0283 O.2       6 UNK        -0.5248 
     44 N          25.4466    3.1125   -7.0035 N.am      7 UNK        -0.4718 
     45 CA         25.3228    3.5558   -8.3959 C.3       7 UNK         0.0273 
     46 CB         24.2347    2.7199   -9.0946 C.3       7 UNK        -0.1935 
     47 C          26.6657    3.4503   -9.1411 C.2       7 UNK         0.5018 
     48 O          26.7096    3.7492  -10.3351 O.2       7 UNK        -0.5186 
     49 N          27.7226    3.0151   -8.4343 N.am      8 UNK        -0.4240 
     50 CA         29.0760    2.7257   -8.9180 C.3       8 UNK         0.0235 
     51 CB         29.8118    4.0326   -9.2811 C.3       8 UNK        -0.2000 
     52 C          29.0946    1.6859  -10.0555 C.2       8 UNK         0.4941 
     53 O          29.8694    1.8272  -11.0038 O.2       8 UNK        -0.5273 
     54 N          28.2301    0.6636   -9.9542 N.am      9 UNK        -0.4262 
     55 CA         28.0837   -0.3900  -10.9631 C.3       9 UNK         0.0264 
     56 CB         26.7475   -1.1224  -10.7523 C.3       9 UNK        -0.1955 
     57 C          29.2657   -1.3787  -11.0184 C.2       9 UNK         0.5031 
     58 O          29.3593   -2.1349  -11.9869 O.2       9 UNK        -0.5390 
     59 N          30.1455   -1.3611  -10.0101 N.am      10 UNK        -0.4204 
     60 CA         31.3775   -2.1408   -9.9435 C.3       10 UNK         0.0237 
     61 CB         31.0741   -3.5185   -9.3234 C.3       10 UNK        -0.1985 
     62 C          32.4297   -1.3554   -9.1442 C.2       10 UNK         0.4970 
     63 O          32.1511   -0.2463   -8.6844 O.2       10 UNK        -0.4914 
     64 N          33.6201   -1.9496   -8.9913 N.am      11 UNK        -0.4285 
     65 CA         34.7330   -1.4549   -8.1560 C.3       11 UNK         0.1007 
     66 C          35.3807   -0.1183   -8.6345 C.2       11 UNK         0.5703 
     67 N          35.1816    0.3028   -9.8780 N.am      11 UNK        -0.7361 
     68 O          36.1073    0.5304   -7.8848 O.2       11 UNK        -0.4986 
     69 C69        34.3922   -1.4546   -6.6342 C.3       12 UNK        -0.0947 
     70 S70        33.8944   -3.1080   -6.0398 S.3       12 UNK        -0.2240 
     71 C71        32.1084   -2.8954   -5.7654 C.3       12 UNK         0.0194 
     72 H72        25.9686   -3.9189    2.9931 H         1 UNK         0.0906 
     73 H73        26.3319   -2.2503    2.5505 H         1 UNK         0.0906 
     74 H74        24.6846   -2.8645    2.3958 H         1 UNK         0.0906 
     75 H75        27.3762   -2.1130    0.5956 H         1 UNK         0.3140 
     76 H76        28.1043   -2.4178   -1.4563 H         1 UNK         0.1085 
     77 H77        28.4763   -4.6838   -2.3764 H         1 UNK         0.0836 
     78 H78        27.3992   -5.3817   -1.1997 H         1 UNK         0.0836 
     79 H79        30.7688   -5.7875   -1.9220 H         1 UNK         0.0731 
     80 H80        31.8034   -5.1157   -0.6869 H         1 UNK         0.0731 
     81 H81        31.4742   -4.8040   -3.9508 H         1 UNK         0.1312 
     82 H82        32.0462   -0.5760   -4.3255 H         1 UNK         0.1406 
     83 H83        31.0216   -2.2796   -0.5190 H         1 UNK         0.1631 
     84 H84        32.5598    0.3619   -1.4422 H         1 UNK         0.0717 
     85 H85        30.9834    0.0791   -0.7458 H         1 UNK         0.0717 
     86 H86        29.1111   -0.2286   -2.8546 H         1 UNK         0.0934 
     87 H87        28.4270    1.3166   -2.4935 H         1 UNK         0.0934 
     88 H88        29.8246    1.1723   -5.1630 H         1 UNK         0.0739 
     89 H89        27.4067   -0.5119   -4.7677 H         1 UNK         0.3093 
     90 H90        27.9213   -2.0310   -7.9395 H         1 UNK         0.0818 
     91 H91        29.2687   -3.4679   -6.4577 H         1 UNK         0.0819 
     92 H92        27.6354   -4.0995   -6.5412 H         1 UNK         0.0819 
     93 H93        28.1728   -3.2027   -5.1198 H         1 UNK         0.0819 
     94 H94        25.8858   -2.4262   -6.0282 H         1 UNK         0.3041 
     95 H95        23.9852    0.5013   -6.3632 H         1 UNK         0.0784 
     96 H96        23.3468   -0.6189   -8.5092 H         1 UNK         0.0793 
     97 H97        23.3111   -2.1752   -7.6922 H         1 UNK         0.0793 
     98 H98        22.1634   -0.9107   -7.2473 H         1 UNK         0.0793 
     99 H99        23.1515   -1.8523   -5.1723 H         1 UNK         0.3024 
    100 H100       23.5663   -1.0070   -2.2247 H         1 UNK         0.1171 
    101 H101       22.9271   -3.4526   -2.1515 H         1 UNK         0.0786 
    102 H102       22.2548   -2.6172   -3.5340 H         1 UNK         0.0786 
    103 H103       23.6480   -3.6781   -3.7390 H         1 UNK         0.0786 
    104 H104       25.3175   -1.6947   -1.0523 H         1 UNK         0.2977 
    105 H105       26.3360    1.2818   -4.2741 H         1 UNK         0.3127 
    106 H106       26.2256    4.0753   -3.9508 H         1 UNK         0.0770 
    107 H107       23.9542    2.0908   -4.4943 H         1 UNK         0.0814 
    108 H108       23.7691    3.7078   -3.8330 H         1 UNK         0.0814 
    109 H109       24.6265    2.4825   -2.9128 H         1 UNK         0.0814 
    110 H110       25.5937    2.1189   -6.8687 H         1 UNK         0.2983 
    111 H111       25.0181    4.6037   -8.4383 H         1 UNK         0.0947 
    112 H112       24.0446    3.0937  -10.1014 H         1 UNK         0.0806 
    113 H113       23.2905    2.7621   -8.5515 H         1 UNK         0.0806 
    114 H114       24.5209    1.6729   -9.1904 H         1 UNK         0.0806 
    115 H115       27.5758    2.8490   -7.4479 H         1 UNK         0.3000 
    116 H116       29.6086    2.2674   -8.0828 H         1 UNK         0.0850 
    117 H117       30.8562    3.8374   -9.5276 H         1 UNK         0.0810 
    118 H118       29.8030    4.7355   -8.4480 H         1 UNK         0.0810 
    119 H119       29.3598    4.5253  -10.1425 H         1 UNK         0.0810 
    120 H120       27.6118    0.6178   -9.1502 H         1 UNK         0.3040 
    121 H121       28.0384    0.0966  -11.9398 H         1 UNK         0.0766 
    122 H122       25.9084   -0.4262  -10.7581 H         1 UNK         0.0812 
    123 H123       26.7208   -1.6671   -9.8105 H         1 UNK         0.0812 
    124 H124       26.5718   -1.8467  -11.5486 H         1 UNK         0.0812 
    125 H125       30.0380   -0.6867   -9.2568 H         1 UNK         0.3205 
    126 H126       31.7753   -2.2767  -10.9514 H         1 UNK         0.0754 
    127 H127       31.9692   -4.1359   -9.2436 H         1 UNK         0.0769 
    128 H128       30.3574   -4.0735   -9.9291 H         1 UNK         0.0769 
    129 H129       30.6528   -3.4177   -8.3250 H         1 UNK         0.0769 
    130 H130       33.7771   -2.8452   -9.4296 H         1 UNK         0.2981 
    131 H131       35.5289   -2.1873   -8.2949 H         1 UNK         0.0541 
    132 H132       35.6131    1.1606  -10.1837 H         1 UNK         0.3459 
    133 H133       34.5938   -0.2203  -10.5064 H         1 UNK         0.3459 
    134 H134       35.2645   -1.1606   -6.0482 H         1 UNK         0.0612 
    135 H135       33.6187   -0.7198   -6.4069 H         1 UNK         0.0612 
    136 H136       31.7187   -2.0599   -6.3475 H         1 UNK         0.0624 
    137 H137       31.6048   -3.7873   -6.1390 H         1 UNK         0.0624 
@<TRIPOS>BOND
     1    1    2 1    
     2    1   72 1    
     3    1   73 1    
     4    1   74 1    
     5    2    3 2    
     6    2    4 am   BACKBONE|DICT|INTERRES
     7    4    5 1    
     8    4   75 1    
     9    5    6 1    
    10    5   35 1    
    11    5   76 1    
    12    6    7 1    
    13    6   77 1    
    14    6   78 1    
    15    7    8 1    
    16    8    9 1    
    17    8   79 1    
    18    8   80 1    
    19    9   10 ar   
    20    9   14 ar   
    21   10   11 ar   
    22   10   81 1    
    23   11   12 ar   
    24   11   71 1    
    25   12   13 ar   
    26   12   82 1    
    27   13   14 ar   
    28   13   15 1    
    29   14   83 1    
    30   15   16 1    
    31   15   84 1    
    32   15   85 1    
    33   16   17 1    
    34   17   18 1    
    35   17   86 1    
    36   17   87 1    
    37   18   19 1    
    38   18   37 1    
    39   18   88 1    
    40   19   20 am   BACKBONE|DICT|INTERRES
    41   19   89 1    
    42   20   21 2    
    43   20   22 1    
    44   22   23 1    
    45   22   24 1    
    46   22   90 1    
    47   23   91 1    
    48   23   92 1    
    49   23   93 1    
    50   24   25 am   BACKBONE|DICT|INTERRES
    51   24   94 1    
    52   25   26 2    
    53   25   27 1    
    54   27   28 1    
    55   27   29 1    
    56   27   95 1    
    57   28   96 1    
    58   28   97 1    
    59   28   98 1    
    60   29   30 am   BACKBONE|DICT|INTERRES
    61   29   99 1    
    62   30   31 2    
    63   30   32 1    
    64   32   33 1    
    65   32   34 1    
    66   32  100 1    
    67   33  101 1    
    68   33  102 1    
    69   33  103 1    
    70   34   35 am   BACKBONE|DICT|INTERRES
    71   34  104 1    
    72   35   36 2    
    73   37   38 2    
    74   37   39 am   BACKBONE|DICT|INTERRES
    75   39   40 1    
    76   39  105 1    
    77   40   41 1    
    78   40   42 1    
    79   40  106 1    
    80   41  107 1    
    81   41  108 1    
    82   41  109 1    
    83   42   43 2    
    84   42   44 am   BACKBONE|DICT|INTERRES
    85   44   45 1    
    86   44  110 1    
    87   45   46 1    
    88   45   47 1    
    89   45  111 1    
    90   46  112 1    
    91   46  113 1    
    92   46  114 1    
    93   47   48 2    
    94   47   49 am   BACKBONE|DICT|INTERRES
    95   49   50 1    
    96   49  115 1    
    97   50   51 1    
    98   50   52 1    
    99   50  116 1    
   100   51  117 1    
   101   51  118 1    
   102   51  119 1    
   103   52   53 2    
   104   52   54 am   BACKBONE|DICT|INTERRES
   105   54   55 1    
   106   54  120 1    
   107   55   56 1    
   108   55   57 1    
   109   55  121 1    
   110   56  122 1    
   111   56  123 1    
   112   56  124 1    
   113   57   58 2    
   114   57   59 am   BACKBONE|DICT|INTERRES
   115   59   60 1    
   116   59  125 1    
   117   60   61 1    
   118   60   62 1    
   119   60  126 1    
   120   61  127 1    
   121   61  128 1    
   122   61  129 1    
   123   62   63 2    
   124   62   64 am   BACKBONE|DICT|INTERRES
   125   64   65 1    
   126   64  130 1    
   127   65   66 1    
   128   65   69 1    
   129   65  131 1    
   130   66   67 am   BACKBONE|DICT|INTERRES
   131   66   68 2    
   132   67  132 1    
   133   67  133 1    
   134   69   70 1    
   135   69  134 1    
   136   69  135 1    
   137   70   71 1    
   138   71  136 1    
   139   71  137 1    
@<TRIPOS>SUBSTRUCTURE
     1 UNK         1 GROUP             0       ****    0 ROOT    
