@<TRIPOS>MOLECULE
3R137
137   139    1
SMALL
USER_CHARGES


@<TRIPOS>ATOM
      1 CA         30.7491   -6.1180   -8.4151 C.3       0 UNK        -0.2020 
      2 C          30.4412   -6.2133   -6.9285 C.2       0 UNK         0.4855 
      3 O          30.1667   -7.3032   -6.4261 O.2       0 UNK        -0.5197 
      4 N          30.4855   -5.0780   -6.2221 N.am      1 UNK        -0.4892 
      5 CA         30.1646   -4.9563   -4.7953 C.3       1 UNK         0.0835 
      6 C6         30.7465   -3.6331   -4.2420 C.3       12 UNK        -0.0855 
      7 S7         30.8141   -3.4975   -2.4222 S.3       12 UNK        -0.2931 
      8 C8         29.2654   -2.6047   -2.0232 C.3       12 UNK         0.0378 
      9 C9         29.2935   -1.0808   -2.1751 C.ar      12 UNK        -0.0802 
     10 C10        30.1354   -0.4206   -3.0779 C.ar      12 UNK        -0.0944 
     11 C11        30.1027    0.9701   -3.2140 C.ar      12 UNK        -0.0787 
     12 C12        29.2175    1.7136   -2.4304 C.ar      12 UNK        -0.0862 
     13 C13        28.3323    1.0687   -1.5621 C.ar      12 UNK        -0.0733 
     14 C14        28.3875   -0.3216   -1.4276 C.ar      12 UNK        -0.0832 
     15 C15        27.2684    1.8622   -0.8190 C.3       12 UNK         0.0240 
     16 S16        25.6418    1.7063   -1.6332 S.3       12 UNK        -0.2522 
     17 C17        25.9294    2.5440   -3.2314 C.3       12 UNK        -0.0967 
     18 CA         26.2476    1.5451   -4.3870 C.3       5 UNK         0.0660 
     19 N          25.1696    0.5812   -4.6482 N.am      5 UNK        -0.4015 
     20 C          23.9195    0.8548   -5.0529 C.2       4 UNK         0.4946 
     21 O          23.4671    1.9927   -5.1930 O.2       4 UNK        -0.5353 
     22 CA         23.0067   -0.3442   -5.3776 C.3       4 UNK         0.0277 
     23 CB         22.9728   -0.5817   -6.8975 C.3       4 UNK        -0.1981 
     24 N          23.3942   -1.5918   -4.7139 N.am      4 UNK        -0.4209 
     25 C          23.3340   -1.8251   -3.3949 C.2       3 UNK         0.4942 
     26 O          22.8773   -1.0196   -2.5834 O.2       3 UNK        -0.5208 
     27 CA         23.8618   -3.1838   -2.8855 C.3       3 UNK         0.0250 
     28 CB         22.7076   -4.0386   -2.3343 C.3       3 UNK        -0.1990 
     29 N          24.6035   -3.9740   -3.8786 N.am      3 UNK        -0.4232 
     30 C          25.7897   -3.6355   -4.4006 C.2       2 UNK         0.4993 
     31 O          26.3677   -2.5794   -4.1408 O.2       2 UNK        -0.5286 
     32 CA         26.3703   -4.5958   -5.4531 C.3       2 UNK         0.0209 
     33 CB         25.8265   -4.2370   -6.8469 C.3       2 UNK        -0.1931 
     34 N          27.8348   -4.5704   -5.4945 N.am      2 UNK        -0.4546 
     35 C          28.6416   -5.0802   -4.5514 C.2       1 UNK         0.5154 
     36 O          28.2281   -5.6609   -3.5462 O.2       1 UNK        -0.5181 
     37 C          26.7378    2.2478   -5.6804 C.2       5 UNK         0.5014 
     38 O          26.2926    1.9204   -6.7846 O.2       5 UNK        -0.5248 
     39 N          27.6916    3.1785   -5.5199 N.am      6 UNK        -0.4434 
     40 CA         28.2980    4.0222   -6.5577 C.3       6 UNK         0.0363 
     41 CB         27.2581    5.0388   -7.0840 C.3       6 UNK        -0.1936 
     42 C          28.9970    3.2185   -7.6761 C.2       6 UNK         0.5081 
     43 O          29.4957    2.1174   -7.4285 O.2       6 UNK        -0.5248 
     44 N          29.0358    3.7838   -8.8904 N.am      7 UNK        -0.4718 
     45 CA         29.6723    3.2073  -10.0802 C.3       7 UNK         0.0273 
     46 CB         29.6983    4.2628  -11.1974 C.3       7 UNK        -0.1935 
     47 C          29.0180    1.9079  -10.5836 C.2       7 UNK         0.5018 
     48 O          29.6813    1.1389  -11.2788 O.2       7 UNK        -0.5186 
     49 N          27.7495    1.6729  -10.2163 N.am      8 UNK        -0.4240 
     50 CA         27.0406    0.4145  -10.4611 C.3       8 UNK         0.0235 
     51 CB         25.5385    0.6094  -10.1956 C.3       8 UNK        -0.2000 
     52 C          27.5949   -0.7376   -9.6054 C.2       8 UNK         0.4941 
     53 O          27.6386   -1.8747  -10.0755 O.2       8 UNK        -0.5273 
     54 N          28.0109   -0.4178   -8.3733 N.am      9 UNK        -0.4262 
     55 CA         28.6300   -1.3491   -7.4339 C.3       9 UNK         0.0264 
     56 CB         28.2854   -0.8925   -6.0165 C.3       9 UNK        -0.1955 
     57 C          30.1489   -1.4601   -7.6403 C.2       9 UNK         0.5031 
     58 O          30.6919   -2.5505   -7.4576 O.2       9 UNK        -0.5390 
     59 N          30.7858   -0.3522   -8.0495 N.am      10 UNK        -0.4204 
     60 CA         32.1726   -0.2405   -8.5183 C.3       10 UNK         0.0237 
     61 CB         32.3653   -1.0367   -9.8275 C.3       10 UNK        -0.1985 
     62 C          33.2252   -0.5850   -7.4463 C.2       10 UNK         0.4970 
     63 O          34.1320   -1.3812   -7.6990 O.2       10 UNK        -0.4914 
     64 N          33.0961    0.0426   -6.2722 N.am      11 UNK        -0.4285 
     65 CA         34.0999    0.0228   -5.1979 C.3       11 UNK         0.1007 
     66 C          35.3676    0.8573   -5.5395 C.2       11 UNK         0.5703 
     67 N          36.4844    0.5841   -4.8778 N.am      11 UNK        -0.7361 
     68 O          35.3475    1.7581   -6.3774 O.2       11 UNK        -0.4986 
     69 C69        33.4905    0.4039   -3.8194 C.3       12 UNK        -0.0947 
     70 S70        32.6491    2.0278   -3.7478 S.3       12 UNK        -0.2240 
     71 C71        30.9451    1.6583   -4.2792 C.3       12 UNK         0.0194 
     72 H72        29.8923   -6.4543   -8.9983 H         1 UNK         0.0906 
     73 H73        30.9849   -5.0971   -8.7170 H         1 UNK         0.0906 
     74 H74        31.6012   -6.7500   -8.6637 H         1 UNK         0.0906 
     75 H75        30.6978   -4.2016   -6.7018 H         1 UNK         0.3140 
     76 H76        30.6463   -5.7858   -4.2724 H         1 UNK         0.1085 
     77 H77        31.7756   -3.5219   -4.5889 H         1 UNK         0.0836 
     78 H78        30.2151   -2.7908   -4.6684 H         1 UNK         0.0836 
     79 H79        29.0184   -2.8499   -0.9892 H         1 UNK         0.0731 
     80 H80        28.4483   -2.9988   -2.6241 H         1 UNK         0.0731 
     81 H81        30.8030   -0.9840   -3.7053 H         1 UNK         0.1312 
     82 H82        29.1789    2.7886   -2.5367 H         1 UNK         0.1406 
     83 H83        27.6934   -0.8167   -0.7617 H         1 UNK         0.1631 
     84 H84        27.5443    2.9154   -0.7463 H         1 UNK         0.0717 
     85 H85        27.1886    1.4958    0.2055 H         1 UNK         0.0717 
     86 H86        25.0468    3.1392   -3.4693 H         1 UNK         0.0934 
     87 H87        26.7303    3.2684   -3.0844 H         1 UNK         0.0934 
     88 H88        27.0877    0.9295   -4.0679 H         1 UNK         0.0739 
     89 H89        25.4326   -0.3913   -4.5560 H         1 UNK         0.3093 
     90 H90        21.9988   -0.0868   -5.0450 H         1 UNK         0.0818 
     91 H91        22.2727   -1.3740   -7.1628 H         1 UNK         0.0819 
     92 H92        22.6553    0.3189   -7.4253 H         1 UNK         0.0819 
     93 H93        23.9556   -0.8535   -7.2858 H         1 UNK         0.0819 
     94 H94        23.7718   -2.3197   -5.3013 H         1 UNK         0.3041 
     95 H95        24.5459   -2.9644   -2.0628 H         1 UNK         0.0784 
     96 H96        22.1577   -3.5025   -1.5592 H         1 UNK         0.0793 
     97 H97        21.9935   -4.3040   -3.1150 H         1 UNK         0.0793 
     98 H98        23.0751   -4.9614   -1.8850 H         1 UNK         0.0793 
     99 H99        24.1754   -4.8432   -4.1650 H         1 UNK         0.3024 
    100 H100       26.0622   -5.6143   -5.2050 H         1 UNK         0.1171 
    101 H101       26.2467   -4.8832   -7.6181 H         1 UNK         0.0786 
    102 H102       24.7430   -4.3553   -6.8871 H         1 UNK         0.0786 
    103 H103       26.0480   -3.2038   -7.1169 H         1 UNK         0.0786 
    104 H104       28.2623   -4.1207   -6.2889 H         1 UNK         0.2977 
    105 H105       28.0429    3.3383   -4.5884 H         1 UNK         0.3127 
    106 H106       29.0893    4.5860   -6.0618 H         1 UNK         0.0770 
    107 H107       26.4876    4.5566   -7.6873 H         1 UNK         0.0814 
    108 H108       27.7233    5.8149   -7.6924 H         1 UNK         0.0814 
    109 H109       26.7576    5.5487   -6.2607 H         1 UNK         0.0814 
    110 H110       28.6031    4.6889   -9.0077 H         1 UNK         0.2983 
    111 H111       30.7037    2.9619   -9.8170 H         1 UNK         0.0947 
    112 H112       30.1937    3.8758  -12.0892 H         1 UNK         0.0806 
    113 H113       30.2440    5.1550  -10.8894 H         1 UNK         0.0806 
    114 H114       28.6924    4.5666  -11.4902 H         1 UNK         0.0806 
    115 H115       27.2806    2.3613   -9.6448 H         1 UNK         0.3000 
    116 H116       27.1727    0.1442  -11.5112 H         1 UNK         0.0850 
    117 H117       24.9863   -0.3113  -10.3893 H         1 UNK         0.0810 
    118 H118       25.1178    1.3805  -10.8410 H         1 UNK         0.0810 
    119 H119       25.3426    0.8937   -9.1606 H         1 UNK         0.0810 
    120 H120       27.9303    0.5450   -8.0684 H         1 UNK         0.3040 
    121 H121       28.2018   -2.3406   -7.5870 H         1 UNK         0.0766 
    122 H122       28.7752    0.0454   -5.7580 H         1 UNK         0.0812 
    123 H123       28.5642   -1.6314   -5.2727 H         1 UNK         0.0812 
    124 H124       27.2109   -0.7551   -5.9185 H         1 UNK         0.0812 
    125 H125       30.2534    0.5159   -8.0456 H         1 UNK         0.3205 
    126 H126       32.3227    0.8133   -8.7580 H         1 UNK         0.0754 
    127 H127       33.3554   -0.8618  -10.2502 H         1 UNK         0.0769 
    128 H128       31.6356   -0.7411  -10.5814 H         1 UNK         0.0769 
    129 H129       32.2645   -2.1108   -9.6677 H         1 UNK         0.0769 
    130 H130       32.3559    0.7177   -6.1648 H         1 UNK         0.2981 
    131 H131       34.4381   -1.0119   -5.1104 H         1 UNK         0.0541 
    132 H132       37.3147    1.1195   -5.0783 H         1 UNK         0.3459 
    133 H133       36.5159   -0.1464   -4.1838 H         1 UNK         0.3459 
    134 H134       34.2727    0.4142   -3.0586 H         1 UNK         0.0612 
    135 H135       32.8146   -0.3792   -3.4905 H         1 UNK         0.0612 
    136 H136       30.9466    1.0553   -5.1850 H         1 UNK         0.0624 
    137 H137       30.4761    2.6006   -4.5645 H         1 UNK         0.0624 
@<TRIPOS>BOND
     1    1    2 1    
     2    1   72 1    
     3    1   73 1    
     4    1   74 1    
     5    2    3 2    
     6    2    4 am   BACKBONE|DICT|INTERRES
     7    4    5 1    
     8    4   75 1    
     9    5    6 1    
    10    5   35 1    
    11    5   76 1    
    12    6    7 1    
    13    6   77 1    
    14    6   78 1    
    15    7    8 1    
    16    8    9 1    
    17    8   79 1    
    18    8   80 1    
    19    9   10 ar   
    20    9   14 ar   
    21   10   11 ar   
    22   10   81 1    
    23   11   12 ar   
    24   11   71 1    
    25   12   13 ar   
    26   12   82 1    
    27   13   14 ar   
    28   13   15 1    
    29   14   83 1    
    30   15   16 1    
    31   15   84 1    
    32   15   85 1    
    33   16   17 1    
    34   17   18 1    
    35   17   86 1    
    36   17   87 1    
    37   18   19 1    
    38   18   37 1    
    39   18   88 1    
    40   19   20 am   BACKBONE|DICT|INTERRES
    41   19   89 1    
    42   20   21 2    
    43   20   22 1    
    44   22   23 1    
    45   22   24 1    
    46   22   90 1    
    47   23   91 1    
    48   23   92 1    
    49   23   93 1    
    50   24   25 am   BACKBONE|DICT|INTERRES
    51   24   94 1    
    52   25   26 2    
    53   25   27 1    
    54   27   28 1    
    55   27   29 1    
    56   27   95 1    
    57   28   96 1    
    58   28   97 1    
    59   28   98 1    
    60   29   30 am   BACKBONE|DICT|INTERRES
    61   29   99 1    
    62   30   31 2    
    63   30   32 1    
    64   32   33 1    
    65   32   34 1    
    66   32  100 1    
    67   33  101 1    
    68   33  102 1    
    69   33  103 1    
    70   34   35 am   BACKBONE|DICT|INTERRES
    71   34  104 1    
    72   35   36 2    
    73   37   38 2    
    74   37   39 am   BACKBONE|DICT|INTERRES
    75   39   40 1    
    76   39  105 1    
    77   40   41 1    
    78   40   42 1    
    79   40  106 1    
    80   41  107 1    
    81   41  108 1    
    82   41  109 1    
    83   42   43 2    
    84   42   44 am   BACKBONE|DICT|INTERRES
    85   44   45 1    
    86   44  110 1    
    87   45   46 1    
    88   45   47 1    
    89   45  111 1    
    90   46  112 1    
    91   46  113 1    
    92   46  114 1    
    93   47   48 2    
    94   47   49 am   BACKBONE|DICT|INTERRES
    95   49   50 1    
    96   49  115 1    
    97   50   51 1    
    98   50   52 1    
    99   50  116 1    
   100   51  117 1    
   101   51  118 1    
   102   51  119 1    
   103   52   53 2    
   104   52   54 am   BACKBONE|DICT|INTERRES
   105   54   55 1    
   106   54  120 1    
   107   55   56 1    
   108   55   57 1    
   109   55  121 1    
   110   56  122 1    
   111   56  123 1    
   112   56  124 1    
   113   57   58 2    
   114   57   59 am   BACKBONE|DICT|INTERRES
   115   59   60 1    
   116   59  125 1    
   117   60   61 1    
   118   60   62 1    
   119   60  126 1    
   120   61  127 1    
   121   61  128 1    
   122   61  129 1    
   123   62   63 2    
   124   62   64 am   BACKBONE|DICT|INTERRES
   125   64   65 1    
   126   64  130 1    
   127   65   66 1    
   128   65   69 1    
   129   65  131 1    
   130   66   67 am   BACKBONE|DICT|INTERRES
   131   66   68 2    
   132   67  132 1    
   133   67  133 1    
   134   69   70 1    
   135   69  134 1    
   136   69  135 1    
   137   70   71 1    
   138   71  136 1    
   139   71  137 1    
@<TRIPOS>SUBSTRUCTURE
     1 UNK         1 GROUP             0       ****    0 ROOT    
