@<TRIPOS>MOLECULE
3R137
137   139    1
SMALL
USER_CHARGES


@<TRIPOS>ATOM
      1 CA         27.2891   -0.1378    4.3579 C.3       0 UNK        -0.2020 
      2 C          27.2875   -0.2103    2.8381 C.2       0 UNK         0.4855 
      3 O          26.5132    0.4971    2.1924 O.2       0 UNK        -0.5197 
      4 N          28.1534   -1.0531    2.2611 N.am      1 UNK        -0.4892 
      5 CA         28.2383   -1.3018    0.8186 C.3       1 UNK         0.0835 
      6 C6         29.5893   -1.9625    0.4514 C.3       12 UNK        -0.0855 
      7 S7         29.9790   -1.8133   -1.3243 S.3       12 UNK        -0.2931 
      8 C8         29.9102   -3.5619   -1.8362 C.3       12 UNK         0.0378 
      9 C9         30.1218   -3.7340   -3.3351 C.ar      12 UNK        -0.0802 
     10 C10        31.2458   -3.1837   -3.9558 C.ar      12 UNK        -0.0944 
     11 C11        31.4493   -3.3310   -5.3298 C.ar      12 UNK        -0.0787 
     12 C12        30.5290   -4.0645   -6.0867 C.ar      12 UNK        -0.0862 
     13 C13        29.4123   -4.6464   -5.4741 C.ar      12 UNK        -0.0733 
     14 C14        29.2132   -4.4718   -4.1001 C.ar      12 UNK        -0.0832 
     15 C15        28.4494   -5.5150   -6.2765 C.3       12 UNK         0.0240 
     16 S16        27.5787   -4.6118   -7.5963 S.3       12 UNK        -0.2522 
     17 C17        26.5027   -3.4721   -6.6597 C.3       12 UNK        -0.0967 
     18 CA         26.4090   -2.0879   -7.3485 C.3       5 UNK         0.0660 
     19 N          25.1815   -1.3692   -6.9890 N.am      5 UNK        -0.4015 
     20 C          24.7880   -0.1833   -7.4736 C.2       4 UNK         0.4946 
     21 O          25.4757    0.5083   -8.2240 O.2       4 UNK        -0.5353 
     22 CA         23.3995    0.3385   -7.0609 C.3       4 UNK         0.0277 
     23 CB         22.2968   -0.2938   -7.9320 C.3       4 UNK        -0.1981 
     24 N          23.0875    0.2259   -5.6283 N.am      4 UNK        -0.4209 
     25 C          22.9480   -0.8790   -4.8841 C.2       3 UNK         0.4942 
     26 O          23.0612   -2.0294   -5.3161 O.2       3 UNK        -0.5208 
     27 CA         22.6357   -0.6582   -3.3968 C.3       3 UNK         0.0250 
     28 CB         21.1446   -0.9053   -3.1163 C.3       3 UNK        -0.1990 
     29 N          23.4421   -1.5360   -2.5482 N.am      3 UNK        -0.4232 
     30 C          24.7735   -1.4605   -2.4284 C.2       2 UNK         0.4993 
     31 O          25.4782   -0.6238   -3.0030 O.2       2 UNK        -0.5286 
     32 CA         25.4348   -2.5076   -1.5300 C.3       2 UNK         0.0209 
     33 CB         25.8837   -3.7250   -2.3552 C.3       2 UNK        -0.1931 
     34 N          26.5924   -1.8865   -0.8981 N.am      2 UNK        -0.4546 
     35 C          27.0355   -2.1418    0.3359 C.2       1 UNK         0.5154 
     36 O          26.5522   -3.0068    1.0724 O.2       1 UNK        -0.5181 
     37 C          27.6905   -1.2575   -7.1430 C.2       5 UNK         0.5014 
     38 O          28.5448   -1.2459   -8.0293 O.2       5 UNK        -0.5248 
     39 N          27.7735   -0.5330   -6.0170 N.am      6 UNK        -0.4434 
     40 CA         28.9071    0.3333   -5.6821 C.3       6 UNK         0.0363 
     41 CB         28.7344    0.8733   -4.2547 C.3       6 UNK        -0.1936 
     42 C          29.1296    1.4847   -6.6828 C.2       6 UNK         0.5081 
     43 O          30.2750    1.8753   -6.9195 O.2       6 UNK        -0.5248 
     44 N          28.0337    1.9925   -7.2634 N.am      7 UNK        -0.4718 
     45 CA         28.0523    3.0077   -8.3139 C.3       7 UNK         0.0273 
     46 CB         26.7478    3.8202   -8.2735 C.3       7 UNK        -0.1935 
     47 C          28.2609    2.3736   -9.6960 C.2       7 UNK         0.5018 
     48 O          29.0765    2.8771  -10.4670 O.2       7 UNK        -0.5186 
     49 N          27.5444    1.2756   -9.9801 N.am      8 UNK        -0.4240 
     50 CA         27.5821    0.5492  -11.2539 C.3       8 UNK         0.0235 
     51 CB         26.4998   -0.5416  -11.2610 C.3       8 UNK        -0.2000 
     52 C          28.9589   -0.0518  -11.5808 C.2       8 UNK         0.4941 
     53 O          29.3919    0.0272  -12.7309 O.2       8 UNK        -0.5273 
     54 N          29.6360   -0.6087  -10.5670 N.am      9 UNK        -0.4262 
     55 CA         31.0099   -1.1093  -10.6679 C.3       9 UNK         0.0264 
     56 CB         31.2529   -2.1317   -9.5450 C.3       9 UNK        -0.1955 
     57 C          32.0681    0.0098  -10.6153 C.2       9 UNK         0.5031 
     58 O          33.2385   -0.2698  -10.8777 O.2       9 UNK        -0.5390 
     59 N          31.6541    1.2365  -10.2565 N.am      10 UNK        -0.4204 
     60 CA         32.4631    2.4496  -10.0742 C.3       10 UNK         0.0237 
     61 CB         33.0592    2.9168  -11.4191 C.3       10 UNK        -0.1985 
     62 C          33.5245    2.3398   -8.9599 C.2       10 UNK         0.4970 
     63 O          34.4875    3.1091   -8.9599 O.2       10 UNK        -0.4914 
     64 N          33.3326    1.3973   -8.0306 N.am      11 UNK        -0.4285 
     65 CA         34.2055    1.1600   -6.8757 C.3       11 UNK         0.1007 
     66 C          33.9561    2.1373   -5.6909 C.2       11 UNK         0.5703 
     67 N          32.7914    2.7688   -5.5864 N.am      11 UNK        -0.7361 
     68 O          34.8436    2.3384   -4.8650 O.2       11 UNK        -0.4986 
     69 C69        34.1635   -0.3281   -6.4380 C.3       12 UNK        -0.0947 
     70 S70        32.4897   -0.8812   -5.9820 S.3       12 UNK        -0.2240 
     71 C71        32.6674   -2.6875   -5.9747 C.3       12 UNK         0.0194 
     72 H72        28.0315   -0.8033    4.7981 H         1 UNK         0.0906 
     73 H73        27.5087    0.8782    4.6850 H         1 UNK         0.0906 
     74 H74        26.3105   -0.4172    4.7474 H         1 UNK         0.0906 
     75 H75        28.7388   -1.6361    2.8426 H         1 UNK         0.3140 
     76 H76        28.1904   -0.3280    0.3244 H         1 UNK         0.1085 
     77 H77        30.4000   -1.4674    0.9887 H         1 UNK         0.0836 
     78 H78        29.6190   -3.0069    0.7692 H         1 UNK         0.0836 
     79 H79        28.9488   -3.9800   -1.5337 H         1 UNK         0.0731 
     80 H80        30.6787   -4.1242   -1.3039 H         1 UNK         0.0731 
     81 H81        31.9579   -2.6183   -3.3698 H         1 UNK         0.1312 
     82 H82        30.6822   -4.1907   -7.1498 H         1 UNK         0.1406 
     83 H83        28.3597   -4.9313   -3.6214 H         1 UNK         0.1631 
     84 H84        27.7096   -5.9849   -5.6263 H         1 UNK         0.0717 
     85 H85        29.0137   -6.3307   -6.7306 H         1 UNK         0.0717 
     86 H86        25.5164   -3.9365   -6.6078 H         1 UNK         0.0934 
     87 H87        26.8433   -3.3776   -5.6273 H         1 UNK         0.0934 
     88 H88        26.3209   -2.2621   -8.4220 H         1 UNK         0.0739 
     89 H89        24.5277   -1.8447   -6.3694 H         1 UNK         0.3093 
     90 H90        23.4022    1.4091   -7.2733 H         1 UNK         0.0818 
     91 H91        21.3211    0.1394   -7.7118 H         1 UNK         0.0819 
     92 H92        22.4941   -0.1242   -8.9915 H         1 UNK         0.0819 
     93 H93        22.2247   -1.3720   -7.7861 H         1 UNK         0.0819 
     94 H94        22.9991    1.1134   -5.1518 H         1 UNK         0.3041 
     95 H95        22.8727    0.3743   -3.1301 H         1 UNK         0.0784 
     96 H96        20.5192   -0.2452   -3.7190 H         1 UNK         0.0793 
     97 H97        20.8543   -1.9308   -3.3498 H         1 UNK         0.0793 
     98 H98        20.8994   -0.7159   -2.0710 H         1 UNK         0.0793 
     99 H99        22.9487   -2.2811   -2.0783 H         1 UNK         0.3024 
    100 H100       24.7203   -2.8223   -0.7653 H         1 UNK         0.1171 
    101 H101       25.0332   -4.2064   -2.8398 H         1 UNK         0.0786 
    102 H102       26.5839   -3.4331   -3.1378 H         1 UNK         0.0786 
    103 H103       26.3684   -4.4737   -1.7286 H         1 UNK         0.0786 
    104 H104       27.0151   -1.1462   -1.4449 H         1 UNK         0.2977 
    105 H105       27.0200   -0.5828   -5.3448 H         1 UNK         0.3127 
    106 H106       29.7967   -0.2939   -5.6994 H         1 UNK         0.0770 
    107 H107       27.8333    1.4801   -4.1572 H         1 UNK         0.0814 
    108 H108       29.5837    1.4959   -3.9699 H         1 UNK         0.0814 
    109 H109       28.6732    0.0609   -3.5302 H         1 UNK         0.0814 
    110 H110       27.1395    1.5644   -7.0628 H         1 UNK         0.2983 
    111 H111       28.8820    3.6951   -8.1323 H         1 UNK         0.0947 
    112 H112       26.7495    4.5959   -9.0405 H         1 UNK         0.0806 
    113 H113       26.6216    4.3172   -7.3116 H         1 UNK         0.0806 
    114 H114       25.8706    3.1953   -8.4449 H         1 UNK         0.0806 
    115 H115       26.8716    0.9455   -9.2892 H         1 UNK         0.3000 
    116 H116       27.3435    1.2673  -12.0413 H         1 UNK         0.0850 
    117 H117       26.4645   -1.0499  -12.2255 H         1 UNK         0.0810 
    118 H118       25.5102   -0.1224  -11.0777 H         1 UNK         0.0810 
    119 H119       26.6896   -1.2987  -10.5008 H         1 UNK         0.0810 
    120 H120       29.1896   -0.6913   -9.6528 H         1 UNK         0.3040 
    121 H121       31.1267   -1.6231  -11.6243 H         1 UNK         0.0766 
    122 H122       31.1552   -1.6746   -8.5602 H         1 UNK         0.0812 
    123 H123       32.2544   -2.5587   -9.6097 H         1 UNK         0.0812 
    124 H124       30.5425   -2.9569   -9.5987 H         1 UNK         0.0812 
    125 H125       30.6618    1.3663  -10.1023 H         1 UNK         0.3205 
    126 H126       31.7675    3.2205   -9.7393 H         1 UNK         0.0754 
    127 H127       33.5311    3.8953  -11.3217 H         1 UNK         0.0769 
    128 H128       32.2866    3.0073  -12.1829 H         1 UNK         0.0769 
    129 H129       33.8175    2.2255  -11.7879 H         1 UNK         0.0769 
    130 H130       32.4882    0.8451   -8.0618 H         1 UNK         0.2981 
    131 H131       35.2304    1.3516   -7.1994 H         1 UNK         0.0541 
    132 H132       32.0256    2.5436   -6.2132 H         1 UNK         0.3459 
    133 H133       32.6440    3.4067   -4.8215 H         1 UNK         0.3459 
    134 H134       34.8362   -0.5052   -5.5970 H         1 UNK         0.0612 
    135 H135       34.5244   -0.9579   -7.2527 H         1 UNK         0.0612 
    136 H136       33.5628   -2.9640   -5.4162 H         1 UNK         0.0624 
    137 H137       32.8078   -3.0437   -6.9961 H         1 UNK         0.0624 
@<TRIPOS>BOND
     1    1    2 1    
     2    1   72 1    
     3    1   73 1    
     4    1   74 1    
     5    2    3 2    
     6    2    4 am   BACKBONE|DICT|INTERRES
     7    4    5 1    
     8    4   75 1    
     9    5    6 1    
    10    5   35 1    
    11    5   76 1    
    12    6    7 1    
    13    6   77 1    
    14    6   78 1    
    15    7    8 1    
    16    8    9 1    
    17    8   79 1    
    18    8   80 1    
    19    9   10 ar   
    20    9   14 ar   
    21   10   11 ar   
    22   10   81 1    
    23   11   12 ar   
    24   11   71 1    
    25   12   13 ar   
    26   12   82 1    
    27   13   14 ar   
    28   13   15 1    
    29   14   83 1    
    30   15   16 1    
    31   15   84 1    
    32   15   85 1    
    33   16   17 1    
    34   17   18 1    
    35   17   86 1    
    36   17   87 1    
    37   18   19 1    
    38   18   37 1    
    39   18   88 1    
    40   19   20 am   BACKBONE|DICT|INTERRES
    41   19   89 1    
    42   20   21 2    
    43   20   22 1    
    44   22   23 1    
    45   22   24 1    
    46   22   90 1    
    47   23   91 1    
    48   23   92 1    
    49   23   93 1    
    50   24   25 am   BACKBONE|DICT|INTERRES
    51   24   94 1    
    52   25   26 2    
    53   25   27 1    
    54   27   28 1    
    55   27   29 1    
    56   27   95 1    
    57   28   96 1    
    58   28   97 1    
    59   28   98 1    
    60   29   30 am   BACKBONE|DICT|INTERRES
    61   29   99 1    
    62   30   31 2    
    63   30   32 1    
    64   32   33 1    
    65   32   34 1    
    66   32  100 1    
    67   33  101 1    
    68   33  102 1    
    69   33  103 1    
    70   34   35 am   BACKBONE|DICT|INTERRES
    71   34  104 1    
    72   35   36 2    
    73   37   38 2    
    74   37   39 am   BACKBONE|DICT|INTERRES
    75   39   40 1    
    76   39  105 1    
    77   40   41 1    
    78   40   42 1    
    79   40  106 1    
    80   41  107 1    
    81   41  108 1    
    82   41  109 1    
    83   42   43 2    
    84   42   44 am   BACKBONE|DICT|INTERRES
    85   44   45 1    
    86   44  110 1    
    87   45   46 1    
    88   45   47 1    
    89   45  111 1    
    90   46  112 1    
    91   46  113 1    
    92   46  114 1    
    93   47   48 2    
    94   47   49 am   BACKBONE|DICT|INTERRES
    95   49   50 1    
    96   49  115 1    
    97   50   51 1    
    98   50   52 1    
    99   50  116 1    
   100   51  117 1    
   101   51  118 1    
   102   51  119 1    
   103   52   53 2    
   104   52   54 am   BACKBONE|DICT|INTERRES
   105   54   55 1    
   106   54  120 1    
   107   55   56 1    
   108   55   57 1    
   109   55  121 1    
   110   56  122 1    
   111   56  123 1    
   112   56  124 1    
   113   57   58 2    
   114   57   59 am   BACKBONE|DICT|INTERRES
   115   59   60 1    
   116   59  125 1    
   117   60   61 1    
   118   60   62 1    
   119   60  126 1    
   120   61  127 1    
   121   61  128 1    
   122   61  129 1    
   123   62   63 2    
   124   62   64 am   BACKBONE|DICT|INTERRES
   125   64   65 1    
   126   64  130 1    
   127   65   66 1    
   128   65   69 1    
   129   65  131 1    
   130   66   67 am   BACKBONE|DICT|INTERRES
   131   66   68 2    
   132   67  132 1    
   133   67  133 1    
   134   69   70 1    
   135   69  134 1    
   136   69  135 1    
   137   70   71 1    
   138   71  136 1    
   139   71  137 1    
@<TRIPOS>SUBSTRUCTURE
     1 UNK         1 GROUP             0       ****    0 ROOT    
