@<TRIPOS>MOLECULE
3R137
137   139    1
SMALL
USER_CHARGES


@<TRIPOS>ATOM
      1 CA         28.2192   -0.2483    3.5477 C.3       0 UNK        -0.2020 
      2 C          27.8906   -0.4051    2.0703 C.2       0 UNK         0.4855 
      3 O          27.0291    0.3090    1.5558 O.2       0 UNK        -0.5197 
      4 N          28.5761   -1.3266    1.3824 N.am      1 UNK        -0.4892 
      5 CA         28.3548   -1.6491   -0.0310 C.3       1 UNK         0.0835 
      6 C6         29.5296   -2.4684   -0.6210 C.3       12 UNK        -0.0855 
      7 S7         30.9392   -1.3939   -1.0390 S.3       12 UNK        -0.2931 
      8 C8         30.4831   -0.8742   -2.7260 C.3       12 UNK         0.0378 
      9 C9         30.7237   -1.9712   -3.7523 C.ar      12 UNK        -0.0802 
     10 C10        32.0107   -2.1692   -4.2573 C.ar      12 UNK        -0.0944 
     11 C11        32.2534   -3.1437   -5.2257 C.ar      12 UNK        -0.0787 
     12 C12        31.1995   -3.9517   -5.6652 C.ar      12 UNK        -0.0862 
     13 C13        29.9103   -3.7860   -5.1466 C.ar      12 UNK        -0.0733 
     14 C14        29.6735   -2.7782   -4.2060 C.ar      12 UNK        -0.0832 
     15 C15        28.7965   -4.7391   -5.5615 C.3       12 UNK         0.0240 
     16 S16        27.9294   -4.2008   -7.0680 S.3       12 UNK        -0.2522 
     17 C17        26.6076   -3.1379   -6.3964 C.3       12 UNK        -0.0967 
     18 CA         26.4654   -1.8100   -7.1784 C.3       5 UNK         0.0660 
     19 N          25.1054   -1.2696   -7.0762 N.am      5 UNK        -0.4015 
     20 C          24.6395   -0.1381   -7.6226 C.2       4 UNK         0.4946 
     21 O          25.3292    0.6365   -8.2847 O.2       4 UNK        -0.5353 
     22 CA         23.1658    0.2222   -7.3625 C.3       4 UNK         0.0277 
     23 CB         22.2282   -0.5417   -8.3177 C.3       4 UNK        -0.1981 
     24 N          22.7569    0.0842   -5.9564 N.am      4 UNK        -0.4209 
     25 C          22.6732   -1.0310   -5.2186 C.2       3 UNK         0.4942 
     26 O          22.8528   -2.1705   -5.6568 O.2       3 UNK        -0.5208 
     27 CA         22.3766   -0.8309   -3.7252 C.3       3 UNK         0.0250 
     28 CB         20.8877   -1.0793   -3.4351 C.3       3 UNK        -0.1990 
     29 N          23.1891   -1.7067   -2.8767 N.am      3 UNK        -0.4232 
     30 C          24.5287   -1.7363   -2.8427 C.2       2 UNK         0.4993 
     31 O          25.2679   -1.0337   -3.5442 O.2       2 UNK        -0.5286 
     32 CA         25.1519   -2.7274   -1.8552 C.3       2 UNK         0.0209 
     33 CB         25.3552   -4.1093   -2.5017 C.3       2 UNK        -0.1931 
     34 N          26.4340   -2.1817   -1.4307 N.am      2 UNK        -0.4546 
     35 C          27.0200   -2.3880   -0.2475 C.2       1 UNK         0.5154 
     36 O          26.5729   -3.1398    0.6232 O.2       1 UNK        -0.5181 
     37 C          27.5482   -0.7936   -6.7701 C.2       5 UNK         0.5014 
     38 O          28.5299   -0.6398   -7.4957 O.2       5 UNK        -0.5248 
     39 N          27.3045   -0.0625   -5.6707 N.am      6 UNK        -0.4434 
     40 CA         28.1597    1.0174   -5.1634 C.3       6 UNK         0.0363 
     41 CB         27.5594    1.5463   -3.8498 C.3       6 UNK        -0.1936 
     42 C          28.4068    2.1829   -6.1466 C.2       6 UNK         0.5081 
     43 O          29.3494    2.9463   -5.9361 O.2       6 UNK        -0.5248 
     44 N          27.5721    2.3122   -7.1865 N.am      7 UNK        -0.4718 
     45 CA         27.7828    3.2215   -8.3105 C.3       7 UNK         0.0273 
     46 CB         26.4915    4.0119   -8.5827 C.3       7 UNK        -0.1935 
     47 C          28.2179    2.4333   -9.5544 C.2       7 UNK         0.5018 
     48 O          29.2360    2.7710  -10.1584 O.2       7 UNK        -0.5186 
     49 N          27.4440    1.3990   -9.9147 N.am      8 UNK        -0.4240 
     50 CA         27.5740    0.6247  -11.1520 C.3       8 UNK         0.0235 
     51 CB         26.3913   -0.3506  -11.2685 C.3       8 UNK        -0.2000 
     52 C          28.9053   -0.1259  -11.3130 C.2       8 UNK         0.4941 
     53 O          29.3916   -0.2335  -12.4395 O.2       8 UNK        -0.5273 
     54 N          29.4793   -0.6214  -10.2080 N.am      9 UNK        -0.4262 
     55 CA         30.7682   -1.3190  -10.2065 C.3       9 UNK         0.0264 
     56 CB         30.8043   -2.3126   -9.0330 C.3       9 UNK        -0.1955 
     57 C          31.9721   -0.3612  -10.1439 C.2       9 UNK         0.5031 
     58 O          33.1056   -0.8335  -10.2315 O.2       9 UNK        -0.5390 
     59 N          31.7294    0.9465   -9.9593 N.am      10 UNK        -0.4204 
     60 CA         32.6864    2.0472   -9.7642 C.3       10 UNK         0.0237 
     61 CB         33.6589    2.1864  -10.9522 C.3       10 UNK        -0.1985 
     62 C          33.4396    2.0080   -8.4203 C.2       10 UNK         0.4970 
     63 O          33.6543    3.0686   -7.8316 O.2       10 UNK        -0.4914 
     64 N          33.8123    0.8130   -7.9479 N.am      11 UNK        -0.4285 
     65 CA         34.3227    0.5527   -6.5952 C.3       11 UNK         0.1007 
     66 C          33.2855    0.8519   -5.4762 C.2       11 UNK         0.5703 
     67 N          33.7521    1.1067   -4.2601 N.am      11 UNK        -0.7361 
     68 O          32.0754    0.8395   -5.6871 O.2       11 UNK        -0.4986 
     69 C69        34.9544   -0.8642   -6.4662 C.3       12 UNK        -0.0947 
     70 S70        33.9800   -2.2343   -7.1902 S.3       12 UNK        -0.2240 
     71 C71        33.6571   -3.3371   -5.7781 C.3       12 UNK         0.0194 
     72 H72        29.0075   -0.9306    3.8655 H         1 UNK         0.0906 
     73 H73        28.5494    0.7697    3.7528 H         1 UNK         0.0906 
     74 H74        27.3344   -0.4479    4.1516 H         1 UNK         0.0906 
     75 H75        29.2620   -1.8948    1.8587 H         1 UNK         0.3140 
     76 H76        28.2787   -0.7011   -0.5689 H         1 UNK         0.1085 
     77 H77        29.8631   -3.2311    0.0851 H         1 UNK         0.0836 
     78 H78        29.2373   -3.0194   -1.5151 H         1 UNK         0.0836 
     79 H79        31.0690    0.0060   -2.9947 H         1 UNK         0.0731 
     80 H80        29.4410   -0.5567   -2.7430 H         1 UNK         0.0731 
     81 H81        32.8251   -1.5545   -3.9011 H         1 UNK         0.1312 
     82 H82        31.3854   -4.7213   -6.4020 H         1 UNK         0.1406 
     83 H83        28.6768   -2.6370   -3.8130 H         1 UNK         0.1631 
     84 H84        28.0837   -4.8768   -4.7472 H         1 UNK         0.0717 
     85 H85        29.2213   -5.7265   -5.7488 H         1 UNK         0.0717 
     86 H86        25.6839   -3.7153   -6.4646 H         1 UNK         0.0934 
     87 H87        26.7578   -2.9520   -5.3321 H         1 UNK         0.0934 
     88 H88        26.6117   -2.0217   -8.2392 H         1 UNK         0.0739 
     89 H89        24.4368   -1.8136   -6.5348 H         1 UNK         0.3093 
     90 H90        23.0644    1.2841   -7.5929 H         1 UNK         0.0818 
     91 H91        21.1902   -0.2397   -8.1788 H         1 UNK         0.0819 
     92 H92        22.4879   -0.3394   -9.3577 H         1 UNK         0.0819 
     93 H93        22.2844   -1.6214   -8.1769 H         1 UNK         0.0819 
     94 H94        22.6024    0.9630   -5.4805 H         1 UNK         0.3041 
     95 H95        22.6180    0.1987   -3.4522 H         1 UNK         0.0784 
     96 H96        20.2569   -0.4219   -4.0353 H         1 UNK         0.0793 
     97 H97        20.5984   -2.1059   -3.6647 H         1 UNK         0.0793 
     98 H98        20.6480   -0.8879   -2.3889 H         1 UNK         0.0793 
     99 H99        22.6781   -2.3511   -2.2912 H         1 UNK         0.3024 
    100 H100       24.4929   -2.8199   -0.9883 H         1 UNK         0.1171 
    101 H101       25.7667   -4.8230   -1.7877 H         1 UNK         0.0786 
    102 H102       24.4096   -4.5185   -2.8599 H         1 UNK         0.0786 
    103 H103       26.0339   -4.0616   -3.3527 H         1 UNK         0.0786 
    104 H104       26.8160   -1.5070   -2.0812 H         1 UNK         0.2977 
    105 H105       26.4713   -0.2695   -5.1286 H         1 UNK         0.3127 
    106 H106       29.1369    0.5792   -4.9511 H         1 UNK         0.0770 
    107 H107       26.5795    1.9972   -4.0114 H         1 UNK         0.0814 
    108 H108       28.2010    2.3087   -3.4059 H         1 UNK         0.0814 
    109 H109       27.4416    0.7535   -3.1120 H         1 UNK         0.0814 
    110 H110       26.8291    1.6310   -7.2968 H         1 UNK         0.2983 
    111 H111       28.5734    3.9403   -8.0836 H         1 UNK         0.0947 
    112 H112       26.6175    4.6833   -9.4332 H         1 UNK         0.0806 
    113 H113       26.2185    4.6253   -7.7240 H         1 UNK         0.0806 
    114 H114       25.6479    3.3573   -8.8050 H         1 UNK         0.0806 
    115 H115       26.6390    1.1706   -9.3318 H         1 UNK         0.3000 
    116 H116       27.5064    1.3351  -11.9785 H         1 UNK         0.0850 
    117 H117       26.4354   -0.9099  -12.2041 H         1 UNK         0.0810 
    118 H118       25.4377    0.1775  -11.2514 H         1 UNK         0.0810 
    119 H119       26.3860   -1.0755  -10.4545 H         1 UNK         0.0810 
    120 H120       29.0286   -0.5037   -9.3010 H         1 UNK         0.3040 
    121 H121       30.8613   -1.8956  -11.1293 H         1 UNK         0.0766 
    122 H122       30.8344   -1.8027   -8.0687 H         1 UNK         0.0812 
    123 H123       31.6882   -2.9487   -9.0885 H         1 UNK         0.0812 
    124 H124       29.9346   -2.9689   -9.0379 H         1 UNK         0.0812 
    125 H125       30.7573    1.2315   -9.9114 H         1 UNK         0.3205 
    126 H126       32.0740    2.9502   -9.7431 H         1 UNK         0.0754 
    127 H127       34.2683    3.0852  -10.8493 H         1 UNK         0.0769 
    128 H128       33.1211    2.2654  -11.8970 H         1 UNK         0.0769 
    129 H129       34.3435    1.3410  -11.0244 H         1 UNK         0.0769 
    130 H130       33.6153   -0.0052   -8.5152 H         1 UNK         0.2981 
    131 H131       35.1324    1.2692   -6.4430 H         1 UNK         0.0541 
    132 H132       34.7422    1.1234   -4.0727 H         1 UNK         0.3459 
    133 H133       33.1003    1.3124   -3.5207 H         1 UNK         0.3459 
    134 H134       35.2019   -1.0865   -5.4273 H         1 UNK         0.0612 
    135 H135       35.9118   -0.8632   -6.9890 H         1 UNK         0.0612 
    136 H136       33.7801   -4.3676   -6.1143 H         1 UNK         0.0624 
    137 H137       34.4007   -3.1893   -4.9941 H         1 UNK         0.0624 
@<TRIPOS>BOND
     1    1    2 1    
     2    1   72 1    
     3    1   73 1    
     4    1   74 1    
     5    2    3 2    
     6    2    4 am   BACKBONE|DICT|INTERRES
     7    4    5 1    
     8    4   75 1    
     9    5    6 1    
    10    5   35 1    
    11    5   76 1    
    12    6    7 1    
    13    6   77 1    
    14    6   78 1    
    15    7    8 1    
    16    8    9 1    
    17    8   79 1    
    18    8   80 1    
    19    9   10 ar   
    20    9   14 ar   
    21   10   11 ar   
    22   10   81 1    
    23   11   12 ar   
    24   11   71 1    
    25   12   13 ar   
    26   12   82 1    
    27   13   14 ar   
    28   13   15 1    
    29   14   83 1    
    30   15   16 1    
    31   15   84 1    
    32   15   85 1    
    33   16   17 1    
    34   17   18 1    
    35   17   86 1    
    36   17   87 1    
    37   18   19 1    
    38   18   37 1    
    39   18   88 1    
    40   19   20 am   BACKBONE|DICT|INTERRES
    41   19   89 1    
    42   20   21 2    
    43   20   22 1    
    44   22   23 1    
    45   22   24 1    
    46   22   90 1    
    47   23   91 1    
    48   23   92 1    
    49   23   93 1    
    50   24   25 am   BACKBONE|DICT|INTERRES
    51   24   94 1    
    52   25   26 2    
    53   25   27 1    
    54   27   28 1    
    55   27   29 1    
    56   27   95 1    
    57   28   96 1    
    58   28   97 1    
    59   28   98 1    
    60   29   30 am   BACKBONE|DICT|INTERRES
    61   29   99 1    
    62   30   31 2    
    63   30   32 1    
    64   32   33 1    
    65   32   34 1    
    66   32  100 1    
    67   33  101 1    
    68   33  102 1    
    69   33  103 1    
    70   34   35 am   BACKBONE|DICT|INTERRES
    71   34  104 1    
    72   35   36 2    
    73   37   38 2    
    74   37   39 am   BACKBONE|DICT|INTERRES
    75   39   40 1    
    76   39  105 1    
    77   40   41 1    
    78   40   42 1    
    79   40  106 1    
    80   41  107 1    
    81   41  108 1    
    82   41  109 1    
    83   42   43 2    
    84   42   44 am   BACKBONE|DICT|INTERRES
    85   44   45 1    
    86   44  110 1    
    87   45   46 1    
    88   45   47 1    
    89   45  111 1    
    90   46  112 1    
    91   46  113 1    
    92   46  114 1    
    93   47   48 2    
    94   47   49 am   BACKBONE|DICT|INTERRES
    95   49   50 1    
    96   49  115 1    
    97   50   51 1    
    98   50   52 1    
    99   50  116 1    
   100   51  117 1    
   101   51  118 1    
   102   51  119 1    
   103   52   53 2    
   104   52   54 am   BACKBONE|DICT|INTERRES
   105   54   55 1    
   106   54  120 1    
   107   55   56 1    
   108   55   57 1    
   109   55  121 1    
   110   56  122 1    
   111   56  123 1    
   112   56  124 1    
   113   57   58 2    
   114   57   59 am   BACKBONE|DICT|INTERRES
   115   59   60 1    
   116   59  125 1    
   117   60   61 1    
   118   60   62 1    
   119   60  126 1    
   120   61  127 1    
   121   61  128 1    
   122   61  129 1    
   123   62   63 2    
   124   62   64 am   BACKBONE|DICT|INTERRES
   125   64   65 1    
   126   64  130 1    
   127   65   66 1    
   128   65   69 1    
   129   65  131 1    
   130   66   67 am   BACKBONE|DICT|INTERRES
   131   66   68 2    
   132   67  132 1    
   133   67  133 1    
   134   69   70 1    
   135   69  134 1    
   136   69  135 1    
   137   70   71 1    
   138   71  136 1    
   139   71  137 1    
@<TRIPOS>SUBSTRUCTURE
     1 UNK         1 GROUP             0       ****    0 ROOT    
