@<TRIPOS>MOLECULE
3R137
137   139    1
SMALL
USER_CHARGES


@<TRIPOS>ATOM
      1 CA         27.5921   -4.9371   -9.4827 C.3       0 UNK        -0.2020 
      2 C          26.8582   -5.4511   -8.2531 C.2       0 UNK         0.4855 
      3 O          25.8619   -6.1613   -8.3857 O.2       0 UNK        -0.5197 
      4 N          27.3420   -5.0973   -7.0551 N.am      1 UNK        -0.4892 
      5 CA         26.7764   -5.4918   -5.7585 C.3       1 UNK         0.0835 
      6 C6         27.8034   -5.3168   -4.6101 C.3       12 UNK        -0.0855 
      7 S7         28.5447   -3.6481   -4.4935 S.3       12 UNK        -0.2931 
      8 C8         28.8643   -3.5549   -2.7053 C.3       12 UNK         0.0378 
      9 C9         29.9490   -2.5385   -2.3822 C.ar      12 UNK        -0.0802 
     10 C10        31.2953   -2.9094   -2.4457 C.ar      12 UNK        -0.0944 
     11 C11        32.3017   -1.9944   -2.1220 C.ar      12 UNK        -0.0787 
     12 C12        31.9540   -0.7018   -1.7196 C.ar      12 UNK        -0.0862 
     13 C13        30.6114   -0.3135   -1.6696 C.ar      12 UNK        -0.0733 
     14 C14        29.6131   -1.2370   -2.0000 C.ar      12 UNK        -0.0832 
     15 C15        30.2377    1.1082   -1.2711 C.3       12 UNK         0.0240 
     16 S16        30.6981    2.3837   -2.5048 S.3       12 UNK        -0.2522 
     17 C17        30.6883    1.5179   -4.1220 C.3       12 UNK        -0.0967 
     18 CA         29.3047    1.3004   -4.8026 C.3       5 UNK         0.0660 
     19 N          28.1704    1.4110   -3.8805 N.am      5 UNK        -0.4015 
     20 C          26.9090    1.0674   -4.1586 C.2       4 UNK         0.4946 
     21 O          26.5364    0.6468   -5.2558 O.2       4 UNK        -0.5353 
     22 CA         25.8835    1.2945   -3.0453 C.3       4 UNK         0.0277 
     23 CB         25.0493    2.5529   -3.3340 C.3       4 UNK        -0.1981 
     24 N          24.9983    0.1387   -2.9674 N.am      4 UNK        -0.4209 
     25 C          25.1603   -0.9009   -2.1439 C.2       3 UNK         0.4942 
     26 O          26.0540   -0.9733   -1.2999 O.2       3 UNK        -0.5208 
     27 CA         24.1566   -2.0598   -2.2748 C.3       3 UNK         0.0250 
     28 CB         22.7578   -1.6526   -1.7704 C.3       3 UNK        -0.1990 
     29 N          24.0948   -2.6570   -3.6154 N.am      3 UNK        -0.4232 
     30 C          23.7043   -2.1135   -4.7765 C.2       2 UNK         0.4993 
     31 O          23.2917   -0.9567   -4.8834 O.2       2 UNK        -0.5286 
     32 CA         23.7903   -3.0170   -6.0263 C.3       2 UNK         0.0209 
     33 CB         23.5551   -2.2329   -7.3311 C.3       2 UNK        -0.1931 
     34 N          25.0595   -3.7476   -6.1408 N.am      2 UNK        -0.4546 
     35 C          25.4220   -4.8244   -5.4287 C.2       1 UNK         0.5154 
     36 O          24.7269   -5.2939   -4.5260 O.2       1 UNK        -0.5181 
     37 C          29.1328    2.1654   -6.0669 C.2       5 UNK         0.5014 
     38 O          29.5080    1.7239   -7.1540 O.2       5 UNK        -0.5248 
     39 N          28.5313    3.3538   -5.9111 N.am      6 UNK        -0.4434 
     40 CA         28.1960    4.2664   -7.0064 C.3       6 UNK         0.0363 
     41 CB         27.8015    5.6342   -6.4266 C.3       6 UNK        -0.1936 
     42 C          27.0838    3.7323   -7.9272 C.2       6 UNK         0.5081 
     43 O          27.1108    4.0179   -9.1240 O.2       6 UNK        -0.5248 
     44 N          26.1358    2.9665   -7.3666 N.am      7 UNK        -0.4718 
     45 CA         25.0694    2.3003   -8.1202 C.3       7 UNK         0.0273 
     46 CB         23.8948    1.9679   -7.1852 C.3       7 UNK        -0.1935 
     47 C          25.5865    1.0314   -8.8123 C.2       7 UNK         0.5018 
     48 O          25.2300    0.7761   -9.9628 O.2       7 UNK        -0.5186 
     49 N          26.4294    0.2727   -8.0989 N.am      8 UNK        -0.4240 
     50 CA         27.0941   -0.9364   -8.5828 C.3       8 UNK         0.0235 
     51 CB         27.7777   -1.6215   -7.3910 C.3       8 UNK        -0.2000 
     52 C          28.1347   -0.6737   -9.6834 C.2       8 UNK         0.4941 
     53 O          28.3637   -1.5599  -10.5067 O.2       8 UNK        -0.5273 
     54 N          28.7675    0.5095   -9.6397 N.am      9 UNK        -0.4262 
     55 CA         29.9673    0.9074  -10.3846 C.3       9 UNK         0.0264 
     56 CB         29.6986    0.9706  -11.9034 C.3       9 UNK        -0.1955 
     57 C          31.1645    0.0147  -10.0030 C.2       9 UNK         0.5031 
     58 O          31.8606   -0.5032  -10.8793 O.2       9 UNK        -0.5390 
     59 N          31.3493   -0.1721   -8.6905 N.am      10 UNK        -0.4204 
     60 CA         32.3397   -1.0606   -8.0861 C.3       10 UNK         0.0237 
     61 CB         31.6052   -2.2599   -7.4591 C.3       10 UNK        -0.1985 
     62 C          33.1273   -0.3023   -7.0135 C.2       10 UNK         0.4970 
     63 O          32.6291    0.6904   -6.4829 O.2       10 UNK        -0.4914 
     64 N          34.3285   -0.8035   -6.6988 N.am      11 UNK        -0.4285 
     65 CA         35.2097   -0.3238   -5.6156 C.3       11 UNK         0.1007 
     66 C          35.7291    1.1398   -5.7754 C.2       11 UNK         0.5703 
     67 N          35.6940    1.7253   -6.9667 N.am      11 UNK        -0.7361 
     68 O          36.2103    1.7436   -4.8191 O.2       11 UNK        -0.4986 
     69 C69        34.6222   -0.6126   -4.2021 C.3       12 UNK        -0.0947 
     70 S70        34.3675   -2.3971   -3.9208 S.3       12 UNK        -0.2240 
     71 C71        33.7621   -2.4108   -2.2052 C.3       12 UNK         0.0194 
     72 H72        26.9844   -4.1958  -10.0014 H         1 UNK         0.0906 
     73 H73        27.7904   -5.7571  -10.1723 H         1 UNK         0.0906 
     74 H74        28.5461   -4.4756   -9.2286 H         1 UNK         0.0906 
     75 H75        28.1735   -4.5262   -6.9929 H         1 UNK         0.3140 
     76 H76        26.5555   -6.5599   -5.8234 H         1 UNK         0.1085 
     77 H77        28.6210   -6.0256   -4.7509 H         1 UNK         0.0836 
     78 H78        27.3513   -5.5868   -3.6532 H         1 UNK         0.0836 
     79 H79        27.9366   -3.3062   -2.1868 H         1 UNK         0.0731 
     80 H80        29.1713   -4.5345   -2.3351 H         1 UNK         0.0731 
     81 H81        31.5614   -3.9118   -2.7526 H         1 UNK         0.1312 
     82 H82        32.7269    0.0128   -1.4708 H         1 UNK         0.1406 
     83 H83        28.5723   -0.9470   -1.9597 H         1 UNK         0.1631 
     84 H84        30.7230    1.3514   -0.3248 H         1 UNK         0.0717 
     85 H85        29.1664    1.1770   -1.0775 H         1 UNK         0.0717 
     86 H86        31.3544    2.0963   -4.7650 H         1 UNK         0.0934 
     87 H87        31.2011    0.5608   -4.0346 H         1 UNK         0.0934 
     88 H88        29.2945    0.2667   -5.1537 H         1 UNK         0.0739 
     89 H89        28.3978    1.7869   -2.9715 H         1 UNK         0.3093 
     90 H90        26.4004    1.4330   -2.0931 H         1 UNK         0.0818 
     91 H91        25.6825    3.4382   -3.4051 H         1 UNK         0.0819 
     92 H92        24.4971    2.4683   -4.2702 H         1 UNK         0.0819 
     93 H93        24.3263    2.7361   -2.5389 H         1 UNK         0.0819 
     94 H94        24.3063    0.0368   -3.7082 H         1 UNK         0.3041 
     95 H95        24.5159   -2.8556   -1.6202 H         1 UNK         0.0784 
     96 H96        22.8075   -1.2808   -0.7461 H         1 UNK         0.0793 
     97 H97        22.3135   -0.8643   -2.3789 H         1 UNK         0.0793 
     98 H98        22.0743   -2.5017   -1.7737 H         1 UNK         0.0793 
     99 H99        24.4055   -3.6237   -3.6701 H         1 UNK         0.3024 
    100 H100       22.9857   -3.7500   -5.9324 H         1 UNK         0.1171 
    101 H101       22.5708   -1.7628   -7.3339 H         1 UNK         0.0786 
    102 H102       24.2915   -1.4402   -7.4576 H         1 UNK         0.0786 
    103 H103       23.6035   -2.8833   -8.2046 H         1 UNK         0.0786 
    104 H104       25.7053   -3.4218   -6.8434 H         1 UNK         0.2977 
    105 H105       28.2726    3.6428   -4.9793 H         1 UNK         0.3127 
    106 H106       29.0915    4.3999   -7.6175 H         1 UNK         0.0770 
    107 H107       26.9196    5.5651   -5.7885 H         1 UNK         0.0814 
    108 H108       27.5715    6.3428   -7.2236 H         1 UNK         0.0814 
    109 H109       28.6114    6.0648   -5.8375 H         1 UNK         0.0814 
    110 H110       26.2120    2.7354   -6.3863 H         1 UNK         0.2983 
    111 H111       24.7053    2.9809   -8.8935 H         1 UNK         0.0947 
    112 H112       23.0726    1.5163   -7.7417 H         1 UNK         0.0806 
    113 H113       23.5049    2.8634   -6.7014 H         1 UNK         0.0806 
    114 H114       24.1801    1.2600   -6.4062 H         1 UNK         0.0806 
    115 H115       26.5936    0.5224   -7.1253 H         1 UNK         0.3000 
    116 H116       26.3341   -1.6057   -8.9909 H         1 UNK         0.0850 
    117 H117       28.2662   -2.5453   -7.6955 H         1 UNK         0.0810 
    118 H118       27.0682   -1.8570   -6.5987 H         1 UNK         0.0810 
    119 H119       28.5494   -0.9865   -6.9576 H         1 UNK         0.0810 
    120 H120       28.5423    1.1160   -8.8582 H         1 UNK         0.3040 
    121 H121       30.2147    1.9161  -10.0501 H         1 UNK         0.0766 
    122 H122       29.5041   -0.0154  -12.3259 H         1 UNK         0.0812 
    123 H123       30.5581    1.3843  -12.4319 H         1 UNK         0.0812 
    124 H124       28.8422    1.6067  -12.1272 H         1 UNK         0.0812 
    125 H125       30.8004    0.3826   -8.0379 H         1 UNK         0.3205 
    126 H126       33.0423   -1.4208   -8.8404 H         1 UNK         0.0754 
    127 H127       32.3094   -2.9687   -7.0212 H         1 UNK         0.0769 
    128 H128       31.0215   -2.8003   -8.2047 H         1 UNK         0.0769 
    129 H129       30.9254   -1.9469   -6.6648 H         1 UNK         0.0769 
    130 H130       34.6614   -1.6169   -7.1955 H         1 UNK         0.2981 
    131 H131       36.1158   -0.9238   -5.7057 H         1 UNK         0.0541 
    132 H132       36.0429    2.6655   -7.0648 H         1 UNK         0.3459 
    133 H133       35.3084    1.2426   -7.7618 H         1 UNK         0.3459 
    134 H134       33.6774   -0.0861   -4.0608 H         1 UNK         0.0612 
    135 H135       35.2952   -0.2548   -3.4213 H         1 UNK         0.0612 
    136 H136       33.8734   -3.4189   -1.8032 H         1 UNK         0.0624 
    137 H137       34.3890   -1.7654   -1.5880 H         1 UNK         0.0624 
@<TRIPOS>BOND
     1    1    2 1    
     2    1   72 1    
     3    1   73 1    
     4    1   74 1    
     5    2    3 2    
     6    2    4 am   BACKBONE|DICT|INTERRES
     7    4    5 1    
     8    4   75 1    
     9    5    6 1    
    10    5   35 1    
    11    5   76 1    
    12    6    7 1    
    13    6   77 1    
    14    6   78 1    
    15    7    8 1    
    16    8    9 1    
    17    8   79 1    
    18    8   80 1    
    19    9   10 ar   
    20    9   14 ar   
    21   10   11 ar   
    22   10   81 1    
    23   11   12 ar   
    24   11   71 1    
    25   12   13 ar   
    26   12   82 1    
    27   13   14 ar   
    28   13   15 1    
    29   14   83 1    
    30   15   16 1    
    31   15   84 1    
    32   15   85 1    
    33   16   17 1    
    34   17   18 1    
    35   17   86 1    
    36   17   87 1    
    37   18   19 1    
    38   18   37 1    
    39   18   88 1    
    40   19   20 am   BACKBONE|DICT|INTERRES
    41   19   89 1    
    42   20   21 2    
    43   20   22 1    
    44   22   23 1    
    45   22   24 1    
    46   22   90 1    
    47   23   91 1    
    48   23   92 1    
    49   23   93 1    
    50   24   25 am   BACKBONE|DICT|INTERRES
    51   24   94 1    
    52   25   26 2    
    53   25   27 1    
    54   27   28 1    
    55   27   29 1    
    56   27   95 1    
    57   28   96 1    
    58   28   97 1    
    59   28   98 1    
    60   29   30 am   BACKBONE|DICT|INTERRES
    61   29   99 1    
    62   30   31 2    
    63   30   32 1    
    64   32   33 1    
    65   32   34 1    
    66   32  100 1    
    67   33  101 1    
    68   33  102 1    
    69   33  103 1    
    70   34   35 am   BACKBONE|DICT|INTERRES
    71   34  104 1    
    72   35   36 2    
    73   37   38 2    
    74   37   39 am   BACKBONE|DICT|INTERRES
    75   39   40 1    
    76   39  105 1    
    77   40   41 1    
    78   40   42 1    
    79   40  106 1    
    80   41  107 1    
    81   41  108 1    
    82   41  109 1    
    83   42   43 2    
    84   42   44 am   BACKBONE|DICT|INTERRES
    85   44   45 1    
    86   44  110 1    
    87   45   46 1    
    88   45   47 1    
    89   45  111 1    
    90   46  112 1    
    91   46  113 1    
    92   46  114 1    
    93   47   48 2    
    94   47   49 am   BACKBONE|DICT|INTERRES
    95   49   50 1    
    96   49  115 1    
    97   50   51 1    
    98   50   52 1    
    99   50  116 1    
   100   51  117 1    
   101   51  118 1    
   102   51  119 1    
   103   52   53 2    
   104   52   54 am   BACKBONE|DICT|INTERRES
   105   54   55 1    
   106   54  120 1    
   107   55   56 1    
   108   55   57 1    
   109   55  121 1    
   110   56  122 1    
   111   56  123 1    
   112   56  124 1    
   113   57   58 2    
   114   57   59 am   BACKBONE|DICT|INTERRES
   115   59   60 1    
   116   59  125 1    
   117   60   61 1    
   118   60   62 1    
   119   60  126 1    
   120   61  127 1    
   121   61  128 1    
   122   61  129 1    
   123   62   63 2    
   124   62   64 am   BACKBONE|DICT|INTERRES
   125   64   65 1    
   126   64  130 1    
   127   65   66 1    
   128   65   69 1    
   129   65  131 1    
   130   66   67 am   BACKBONE|DICT|INTERRES
   131   66   68 2    
   132   67  132 1    
   133   67  133 1    
   134   69   70 1    
   135   69  134 1    
   136   69  135 1    
   137   70   71 1    
   138   71  136 1    
   139   71  137 1    
@<TRIPOS>SUBSTRUCTURE
     1 UNK         1 GROUP             0       ****    0 ROOT    
