@<TRIPOS>MOLECULE
3R137
137   139    1
SMALL
USER_CHARGES


@<TRIPOS>ATOM
      1 CA         26.4109   -6.5652   -3.3603 C.3       0 UNK        -0.2020 
      2 C          26.3905   -5.9250   -1.9806 C.2       0 UNK         0.4855 
      3 O          25.5233   -6.2522   -1.1700 O.2       0 UNK        -0.5197 
      4 N          27.3447   -5.0265   -1.7016 N.am      1 UNK        -0.4892 
      5 CA         27.4841   -4.3440   -0.4078 C.3       1 UNK         0.0835 
      6 C6         28.9237   -3.8327   -0.1446 C.3       12 UNK        -0.0855 
      7 S7         30.1597   -5.1784   -0.2710 S.3       12 UNK        -0.2931 
      8 C8         31.5753   -4.3856   -1.1161 C.3       12 UNK         0.0378 
      9 C9         31.1956   -3.6268   -2.3840 C.ar      12 UNK        -0.0802 
     10 C10        31.6995   -2.3379   -2.5948 C.ar      12 UNK        -0.0944 
     11 C11        31.3177   -1.5992   -3.7183 C.ar      12 UNK        -0.0787 
     12 C12        30.4139   -2.1567   -4.6250 C.ar      12 UNK        -0.0862 
     13 C13        29.9088   -3.4425   -4.4319 C.ar      12 UNK        -0.0733 
     14 C14        30.3252   -4.1876   -3.3264 C.ar      12 UNK        -0.0832 
     15 C15        28.8853   -3.9937   -5.4059 C.3       12 UNK         0.0240 
     16 S16        27.2077   -3.5006   -4.8968 S.3       12 UNK        -0.2522 
     17 C17        26.3588   -3.4466   -6.5100 C.3       12 UNK        -0.0967 
     18 CA         26.0038   -2.0299   -7.0333 C.3       5 UNK         0.0660 
     19 N          24.8535   -1.4301   -6.3520 N.am      5 UNK        -0.4015 
     20 C          23.9557   -0.6531   -6.9792 C.2       4 UNK         0.4946 
     21 O          23.9843   -0.4092   -8.1862 O.2       4 UNK        -0.5353 
     22 CA         22.8410   -0.0232   -6.1273 C.3       4 UNK         0.0277 
     23 CB         21.6875   -1.0190   -5.9241 C.3       4 UNK        -0.1981 
     24 N          23.3010    0.4640   -4.8273 N.am      4 UNK        -0.4209 
     25 C          24.2207    1.4222   -4.6427 C.2       3 UNK         0.4942 
     26 O          24.7797    2.0249   -5.5580 O.2       3 UNK        -0.5208 
     27 CA         24.6052    1.7385   -3.1862 C.3       3 UNK         0.0250 
     28 CB         23.7304    2.8780   -2.6396 C.3       3 UNK        -0.1990 
     29 N          24.5271    0.5866   -2.2806 N.am      3 UNK        -0.4232 
     30 C          25.1831   -0.5726   -2.4350 C.2       2 UNK         0.4993 
     31 O          25.9195   -0.8279   -3.3925 O.2       2 UNK        -0.5286 
     32 CA         24.9011   -1.6378   -1.3715 C.3       2 UNK         0.0209 
     33 CB         23.5648   -2.3459   -1.6604 C.3       2 UNK        -0.1931 
     34 N          25.9678   -2.6358   -1.3474 N.am      2 UNK        -0.4546 
     35 C          26.4477   -3.2139   -0.2368 C.2       1 UNK         0.5154 
     36 O          26.0833   -2.9069    0.8999 O.2       1 UNK        -0.5181 
     37 C          27.1932   -1.0499   -7.0743 C.2       5 UNK         0.5014 
     38 O          27.9051   -1.0266   -8.0773 O.2       5 UNK        -0.5248 
     39 N          27.3655   -0.2187   -6.0325 N.am      6 UNK        -0.4434 
     40 CA         28.3924    0.8312   -5.9631 C.3       6 UNK         0.0363 
     41 CB         28.3813    1.4720   -4.5689 C.3       6 UNK        -0.1936 
     42 C          28.2625    1.9116   -7.0515 C.2       6 UNK         0.5081 
     43 O          29.2700    2.5060   -7.4301 O.2       6 UNK        -0.5248 
     44 N          27.0394    2.1352   -7.5490 N.am      7 UNK        -0.4718 
     45 CA         26.7539    2.9986   -8.6958 C.3       7 UNK         0.0273 
     46 CB         25.2455    3.2931   -8.7317 C.3       7 UNK        -0.1935 
     47 C          27.2158    2.4072  -10.0426 C.2       7 UNK         0.5018 
     48 O          27.4278    3.1734  -10.9836 O.2       7 UNK        -0.5186 
     49 N          27.3401    1.0749  -10.1257 N.am      8 UNK        -0.4240 
     50 CA         27.7474    0.3476  -11.3297 C.3       8 UNK         0.0235 
     51 CB         26.8801   -0.9144  -11.4767 C.3       8 UNK        -0.2000 
     52 C          29.2375   -0.0237  -11.2935 C.2       8 UNK         0.4941 
     53 O          29.9132    0.0941  -12.3171 O.2       8 UNK        -0.5273 
     54 N          29.7182   -0.4807  -10.1300 N.am      9 UNK        -0.4262 
     55 CA         31.1068   -0.8646   -9.8758 C.3       9 UNK         0.0264 
     56 CB         31.1698   -1.5959   -8.5247 C.3       9 UNK        -0.1955 
     57 C          32.0585    0.3435   -9.8727 C.2       9 UNK         0.5031 
     58 O          31.6432    1.4646   -9.5707 O.2       9 UNK        -0.5390 
     59 N          33.3433    0.0877  -10.1492 N.am      10 UNK        -0.4204 
     60 CA         34.4236    1.0818  -10.1623 C.3       10 UNK         0.0237 
     61 CB         35.5633    0.5650  -11.0616 C.3       10 UNK        -0.1985 
     62 C          34.9087    1.4590   -8.7446 C.2       10 UNK         0.4970 
     63 O          36.1132    1.4510   -8.4832 O.2       10 UNK        -0.4914 
     64 N          33.9634    1.7735   -7.8529 N.am      11 UNK        -0.4285 
     65 CA         34.2060    2.1728   -6.4575 C.3       11 UNK         0.1007 
     66 C          34.5812    3.6734   -6.2826 C.2       11 UNK         0.5703 
     67 N          34.5120    4.5065   -7.3148 N.am      11 UNK        -0.7361 
     68 O          34.9579    4.0881   -5.1888 O.2       11 UNK        -0.4986 
     69 C69        33.0177    1.7772   -5.5421 C.3       12 UNK        -0.0947 
     70 S70        32.7496   -0.0250   -5.4994 S.3       12 UNK        -0.2240 
     71 C71        31.8402   -0.1855   -3.9324 C.3       12 UNK         0.0194 
     72 H72        27.3657   -6.4146   -3.8628 H         1 UNK         0.0906 
     73 H73        26.2414   -7.6387   -3.2808 H         1 UNK         0.0906 
     74 H74        25.6239   -6.1404   -3.9829 H         1 UNK         0.0906 
     75 H75        28.0183   -4.7694   -2.4079 H         1 UNK         0.3140 
     76 H76        27.2615   -5.0758    0.3727 H         1 UNK         0.1085 
     77 H77        28.9971   -3.4084    0.8587 H         1 UNK         0.0836 
     78 H78        29.1663   -3.0196   -0.8299 H         1 UNK         0.0836 
     79 H79        32.0628   -3.7183   -0.4034 H         1 UNK         0.0731 
     80 H80        32.3083   -5.1521   -1.3707 H         1 UNK         0.0731 
     81 H81        32.3777   -1.9016   -1.8740 H         1 UNK         0.1312 
     82 H82        30.0954   -1.5890   -5.4849 H         1 UNK         0.1406 
     83 H83        29.9460   -5.1890   -3.1769 H         1 UNK         0.1631 
     84 H84        28.9476   -5.0813   -5.4638 H         1 UNK         0.0717 
     85 H85        29.1032   -3.6162   -6.4064 H         1 UNK         0.0717 
     86 H86        26.9667   -3.9650   -7.2535 H         1 UNK         0.0934 
     87 H87        25.4493   -4.0441   -6.4291 H         1 UNK         0.0934 
     88 H88        25.7222   -2.1831   -8.0779 H         1 UNK         0.0739 
     89 H89        24.8072   -1.5462   -5.3481 H         1 UNK         0.3093 
     90 H90        22.4556    0.8368   -6.6796 H         1 UNK         0.0818 
     91 H91        20.8466   -0.5534   -5.4096 H         1 UNK         0.0819 
     92 H92        21.3150   -1.3844   -6.8823 H         1 UNK         0.0819 
     93 H93        21.9982   -1.8881   -5.3428 H         1 UNK         0.0819 
     94 H94        22.8951    0.0341   -4.0095 H         1 UNK         0.3041 
     95 H95        25.6394    2.0808   -3.1819 H         1 UNK         0.0784 
     96 H96        23.7897    3.7575   -3.2828 H         1 UNK         0.0793 
     97 H97        22.6802    2.5896   -2.5786 H         1 UNK         0.0793 
     98 H98        24.0536    3.1860   -1.6450 H         1 UNK         0.0793 
     99 H99        23.9312    0.6986   -1.4725 H         1 UNK         0.3024 
    100 H100       24.8427   -1.1337   -0.4038 H         1 UNK         0.1171 
    101 H101       22.7329   -1.6406   -1.6681 H         1 UNK         0.0786 
    102 H102       23.3430   -3.0950   -0.8998 H         1 UNK         0.0786 
    103 H103       23.5780   -2.8499   -2.6280 H         1 UNK         0.0786 
    104 H104       26.3572   -2.8786   -2.2500 H         1 UNK         0.2977 
    105 H105       26.7763   -0.3352   -5.2135 H         1 UNK         0.3127 
    106 H106       29.3631    0.3594   -6.1128 H         1 UNK         0.0770 
    107 H107       27.4802    2.0620   -4.4144 H         1 UNK         0.0814 
    108 H108       29.2293    2.1469   -4.4467 H         1 UNK         0.0814 
    109 H109       28.4399    0.7221   -3.7793 H         1 UNK         0.0814 
    110 H110       26.2466    1.6895   -7.1006 H         1 UNK         0.2983 
    111 H111       27.2853    3.9423   -8.5542 H         1 UNK         0.0947 
    112 H112       24.9936    3.9504   -9.5651 H         1 UNK         0.0806 
    113 H113       24.9168    3.7884   -7.8178 H         1 UNK         0.0806 
    114 H114       24.6598    2.3796   -8.8454 H         1 UNK         0.0806 
    115 H115       27.2054    0.5226   -9.2872 H         1 UNK         0.3000 
    116 H116       27.5820    0.9688  -12.2128 H         1 UNK         0.0850 
    117 H117       27.1485   -1.4688  -12.3770 H         1 UNK         0.0810 
    118 H118       25.8230   -0.6601  -11.5555 H         1 UNK         0.0810 
    119 H119       26.9975   -1.5913  -10.6296 H         1 UNK         0.0810 
    120 H120       29.0777   -0.5742   -9.3435 H         1 UNK         0.3040 
    121 H121       31.4177   -1.5516  -10.6656 H         1 UNK         0.0766 
    122 H122       32.1848   -1.9204   -8.2921 H         1 UNK         0.0812 
    123 H123       30.5360   -2.4829   -8.5218 H         1 UNK         0.0812 
    124 H124       30.8400   -0.9493   -7.7112 H         1 UNK         0.0812 
    125 H125       33.6149   -0.8670  -10.3379 H         1 UNK         0.3205 
    126 H126       34.0413    1.9990  -10.6154 H         1 UNK         0.0754 
    127 H127       36.3587    1.3062  -11.1526 H         1 UNK         0.0769 
    128 H128       35.2081    0.3529  -12.0703 H         1 UNK         0.0769 
    129 H129       36.0104   -0.3469  -10.6636 H         1 UNK         0.0769 
    130 H130       32.9969    1.7709   -8.1650 H         1 UNK         0.2981 
    131 H131       35.0777    1.6198   -6.1024 H         1 UNK         0.0541 
    132 H132       34.2021    4.1798   -8.2155 H         1 UNK         0.3459 
    133 H133       34.7648    5.4737   -7.1864 H         1 UNK         0.3459 
    134 H134       32.0962    2.2593   -5.8745 H         1 UNK         0.0612 
    135 H135       33.1944    2.1161   -4.5195 H         1 UNK         0.0612 
    136 H136       32.4943    0.1151   -3.1126 H         1 UNK         0.0624 
    137 H137       30.9999    0.5078   -3.9304 H         1 UNK         0.0624 
@<TRIPOS>BOND
     1    1    2 1    
     2    1   72 1    
     3    1   73 1    
     4    1   74 1    
     5    2    3 2    
     6    2    4 am   BACKBONE|DICT|INTERRES
     7    4    5 1    
     8    4   75 1    
     9    5    6 1    
    10    5   35 1    
    11    5   76 1    
    12    6    7 1    
    13    6   77 1    
    14    6   78 1    
    15    7    8 1    
    16    8    9 1    
    17    8   79 1    
    18    8   80 1    
    19    9   10 ar   
    20    9   14 ar   
    21   10   11 ar   
    22   10   81 1    
    23   11   12 ar   
    24   11   71 1    
    25   12   13 ar   
    26   12   82 1    
    27   13   14 ar   
    28   13   15 1    
    29   14   83 1    
    30   15   16 1    
    31   15   84 1    
    32   15   85 1    
    33   16   17 1    
    34   17   18 1    
    35   17   86 1    
    36   17   87 1    
    37   18   19 1    
    38   18   37 1    
    39   18   88 1    
    40   19   20 am   BACKBONE|DICT|INTERRES
    41   19   89 1    
    42   20   21 2    
    43   20   22 1    
    44   22   23 1    
    45   22   24 1    
    46   22   90 1    
    47   23   91 1    
    48   23   92 1    
    49   23   93 1    
    50   24   25 am   BACKBONE|DICT|INTERRES
    51   24   94 1    
    52   25   26 2    
    53   25   27 1    
    54   27   28 1    
    55   27   29 1    
    56   27   95 1    
    57   28   96 1    
    58   28   97 1    
    59   28   98 1    
    60   29   30 am   BACKBONE|DICT|INTERRES
    61   29   99 1    
    62   30   31 2    
    63   30   32 1    
    64   32   33 1    
    65   32   34 1    
    66   32  100 1    
    67   33  101 1    
    68   33  102 1    
    69   33  103 1    
    70   34   35 am   BACKBONE|DICT|INTERRES
    71   34  104 1    
    72   35   36 2    
    73   37   38 2    
    74   37   39 am   BACKBONE|DICT|INTERRES
    75   39   40 1    
    76   39  105 1    
    77   40   41 1    
    78   40   42 1    
    79   40  106 1    
    80   41  107 1    
    81   41  108 1    
    82   41  109 1    
    83   42   43 2    
    84   42   44 am   BACKBONE|DICT|INTERRES
    85   44   45 1    
    86   44  110 1    
    87   45   46 1    
    88   45   47 1    
    89   45  111 1    
    90   46  112 1    
    91   46  113 1    
    92   46  114 1    
    93   47   48 2    
    94   47   49 am   BACKBONE|DICT|INTERRES
    95   49   50 1    
    96   49  115 1    
    97   50   51 1    
    98   50   52 1    
    99   50  116 1    
   100   51  117 1    
   101   51  118 1    
   102   51  119 1    
   103   52   53 2    
   104   52   54 am   BACKBONE|DICT|INTERRES
   105   54   55 1    
   106   54  120 1    
   107   55   56 1    
   108   55   57 1    
   109   55  121 1    
   110   56  122 1    
   111   56  123 1    
   112   56  124 1    
   113   57   58 2    
   114   57   59 am   BACKBONE|DICT|INTERRES
   115   59   60 1    
   116   59  125 1    
   117   60   61 1    
   118   60   62 1    
   119   60  126 1    
   120   61  127 1    
   121   61  128 1    
   122   61  129 1    
   123   62   63 2    
   124   62   64 am   BACKBONE|DICT|INTERRES
   125   64   65 1    
   126   64  130 1    
   127   65   66 1    
   128   65   69 1    
   129   65  131 1    
   130   66   67 am   BACKBONE|DICT|INTERRES
   131   66   68 2    
   132   67  132 1    
   133   67  133 1    
   134   69   70 1    
   135   69  134 1    
   136   69  135 1    
   137   70   71 1    
   138   71  136 1    
   139   71  137 1    
@<TRIPOS>SUBSTRUCTURE
     1 UNK         1 GROUP             0       ****    0 ROOT    
