@<TRIPOS>MOLECULE
3R137
137   139    1
SMALL
USER_CHARGES


@<TRIPOS>ATOM
      1 CA         27.8814   -9.1740   -1.1679 C.3       0 UNK        -0.2020 
      2 C          27.4464   -7.8294   -0.6052 C.2       0 UNK         0.4855 
      3 O          26.6109   -7.7842    0.2978 O.2       0 UNK        -0.5197 
      4 N          28.0030   -6.7318   -1.1338 N.am      1 UNK        -0.4892 
      5 CA         27.7016   -5.3512   -0.7287 C.3       1 UNK         0.0835 
      6 C6         28.8716   -4.3854   -1.0473 C.3       12 UNK        -0.0855 
      7 S7         29.4848   -4.4831   -2.7657 S.3       12 UNK        -0.2931 
      8 C8         28.7945   -2.9687   -3.4936 C.3       12 UNK         0.0378 
      9 C9         29.5359   -1.7138   -3.0550 C.ar      12 UNK        -0.0802 
     10 C10        30.7311   -1.3515   -3.6830 C.ar      12 UNK        -0.0944 
     11 C11        31.3671   -0.1498   -3.3610 C.ar      12 UNK        -0.0787 
     12 C12        30.8344    0.6645   -2.3590 C.ar      12 UNK        -0.0862 
     13 C13        29.6511    0.3034   -1.7093 C.ar      12 UNK        -0.0733 
     14 C14        29.0002   -0.8815   -2.0675 C.ar      12 UNK        -0.0832 
     15 C15        29.0597    1.2091   -0.6416 C.3       12 UNK         0.0240 
     16 S16        27.6086    2.1146   -1.2598 S.3       12 UNK        -0.2522 
     17 C17        28.3373    3.1916   -2.5469 C.3       12 UNK        -0.0967 
     18 CA         28.1394    2.6680   -4.0001 C.3       5 UNK         0.0660 
     19 N          26.7463    2.2591   -4.2256 N.am      5 UNK        -0.4015 
     20 C          26.2719    1.4705   -5.1964 C.2       4 UNK         0.4946 
     21 O          26.9158    1.1130   -6.1874 O.2       4 UNK        -0.5353 
     22 CA         24.8117    1.0184   -5.0362 C.3       4 UNK         0.0277 
     23 CB         23.8651    1.9141   -5.8520 C.3       4 UNK        -0.1981 
     24 N          24.6493   -0.3813   -5.4373 N.am      4 UNK        -0.4209 
     25 C          25.1488   -1.4166   -4.7473 C.2       3 UNK         0.4942 
     26 O          25.7305   -1.3012   -3.6663 O.2       3 UNK        -0.5208 
     27 CA         24.9874   -2.8057   -5.3896 C.3       3 UNK         0.0250 
     28 CB         26.0525   -3.0386   -6.4737 C.3       3 UNK        -0.1990 
     29 N          25.0640   -3.8854   -4.3998 N.am      3 UNK        -0.4232 
     30 C          24.0769   -4.1934   -3.5485 C.2       2 UNK         0.4993 
     31 O          22.9892   -3.6145   -3.5254 O.2       2 UNK        -0.5286 
     32 CA         24.3122   -5.3682   -2.5851 C.3       2 UNK         0.0209 
     33 CB         23.7860   -6.6758   -3.2005 C.3       2 UNK        -0.1931 
     34 N          25.7090   -5.5613   -2.1817 N.am      2 UNK        -0.4546 
     35 C          26.3346   -4.8364   -1.2418 C.2       1 UNK         0.5154 
     36 O          25.8495   -3.8234   -0.7366 O.2       1 UNK        -0.5181 
     37 C          28.6631    3.6822   -5.0484 C.2       5 UNK         0.5014 
     38 O          29.2137    4.7219   -4.6782 O.2       5 UNK        -0.5248 
     39 N          28.4630    3.3864   -6.3347 N.am      6 UNK        -0.4434 
     40 CA         28.8189    4.2151   -7.4810 C.3       6 UNK         0.0363 
     41 CB         27.7941    5.3606   -7.6480 C.3       6 UNK        -0.1936 
     42 C          28.9600    3.3131   -8.7171 C.2       6 UNK         0.5081 
     43 O          29.4615    2.1935   -8.5988 O.2       6 UNK        -0.5248 
     44 N          28.5133    3.7981   -9.8837 N.am      7 UNK        -0.4718 
     45 CA         28.6207    3.1381  -11.1911 C.3       7 UNK         0.0273 
     46 CB         28.1323    4.1070  -12.2803 C.3       7 UNK        -0.1935 
     47 C          27.8901    1.7869  -11.3099 C.2       7 UNK         0.5018 
     48 O          28.2435    1.0001  -12.1882 O.2       7 UNK        -0.5186 
     49 N          26.9051    1.5322  -10.4352 N.am      8 UNK        -0.4240 
     50 CA         26.2161    0.2434  -10.3183 C.3       8 UNK         0.0235 
     51 CB         24.9999    0.3837   -9.3905 C.3       8 UNK        -0.2000 
     52 C          27.1548   -0.8642   -9.8123 C.2       8 UNK         0.4941 
     53 O          27.1712   -1.9545  -10.3844 O.2       8 UNK        -0.5273 
     54 N          27.9303   -0.5523   -8.7649 N.am      9 UNK        -0.4262 
     55 CA         28.9973   -1.4061   -8.2467 C.3       9 UNK         0.0264 
     56 CB         29.3245   -0.9885   -6.8080 C.3       9 UNK        -0.1955 
     57 C          30.2654   -1.3411   -9.1129 C.2       9 UNK         0.5031 
     58 O          30.9470   -2.3576   -9.2509 O.2       9 UNK        -0.5390 
     59 N          30.5515   -0.1502   -9.6624 N.am      10 UNK        -0.4204 
     60 CA         31.7313    0.2171  -10.4521 C.3       10 UNK         0.0237 
     61 CB         31.7888   -0.5698  -11.7789 C.3       10 UNK        -0.1985 
     62 C          33.0164    0.1109   -9.6119 C.2       10 UNK         0.4970 
     63 O          33.9462   -0.6088   -9.9821 O.2       10 UNK        -0.4914 
     64 N          33.0106    0.8145   -8.4720 N.am      11 UNK        -0.4285 
     65 CA         34.0865    0.8593   -7.4698 C.3       11 UNK         0.1007 
     66 C          35.4606    1.2977   -8.0489 C.2       11 UNK         0.5703 
     67 N          36.5505    0.7021   -7.5836 N.am      11 UNK        -0.7361 
     68 O          35.5477    2.2026   -8.8775 O.2       11 UNK        -0.4986 
     69 C69        33.7050    1.7674   -6.2704 C.3       12 UNK        -0.0947 
     70 S70        32.0931    1.3512   -5.5288 S.3       12 UNK        -0.2240 
     71 C71        32.5951    0.2998   -4.1332 C.3       12 UNK         0.0194 
     72 H72        28.6233   -9.0649   -1.9588 H         1 UNK         0.0906 
     73 H73        28.3153   -9.7878   -0.3790 H         1 UNK         0.0906 
     74 H74        27.0228   -9.7044   -1.5790 H         1 UNK         0.0906 
     75 H75        28.6897   -6.8173   -1.8718 H         1 UNK         0.3140 
     76 H76        27.6002   -5.3561    0.3594 H         1 UNK         0.1085 
     77 H77        29.7140   -4.6293   -0.3983 H         1 UNK         0.0836 
     78 H78        28.6089   -3.3588   -0.7904 H         1 UNK         0.0836 
     79 H79        27.7350   -2.8994   -3.2477 H         1 UNK         0.0731 
     80 H80        28.8522   -3.0553   -4.5783 H         1 UNK         0.0731 
     81 H81        31.1474   -1.9888   -4.4501 H         1 UNK         0.1312 
     82 H82        31.3257    1.5950   -2.1092 H         1 UNK         0.1406 
     83 H83        28.0623   -1.1407   -1.5943 H         1 UNK         0.1631 
     84 H84        29.8022    1.9188   -0.2732 H         1 UNK         0.0717 
     85 H85        28.7604    0.6069    0.2174 H         1 UNK         0.0717 
     86 H86        27.8749    4.1744   -2.4344 H         1 UNK         0.0934 
     87 H87        29.3981    3.3390   -2.3363 H         1 UNK         0.0934 
     88 H88        28.7531    1.7721   -4.1161 H         1 UNK         0.0739 
     89 H89        26.1189    2.5085   -3.4752 H         1 UNK         0.3093 
     90 H90        24.5312    1.0962   -3.9832 H         1 UNK         0.0818 
     91 H91        23.9262    2.9499   -5.5157 H         1 UNK         0.0819 
     92 H92        24.1044    1.9084   -6.9145 H         1 UNK         0.0819 
     93 H93        22.8269    1.6010   -5.7400 H         1 UNK         0.0819 
     94 H94        24.2133   -0.5502   -6.3312 H         1 UNK         0.3041 
     95 H95        24.0043   -2.8453   -5.8643 H         1 UNK         0.0784 
     96 H96        26.0329   -2.2457   -7.2222 H         1 UNK         0.0793 
     97 H97        27.0571   -3.0654   -6.0557 H         1 UNK         0.0793 
     98 H98        25.8845   -3.9792   -6.9985 H         1 UNK         0.0793 
     99 H99        25.9340   -4.3910   -4.3309 H         1 UNK         0.3024 
    100 H100       23.7259   -5.1618   -1.6861 H         1 UNK         0.1171 
    101 H101       24.3421   -6.9544   -4.0965 H         1 UNK         0.0786 
    102 H102       23.8521   -7.5023   -2.4924 H         1 UNK         0.0786 
    103 H103       22.7371   -6.5795   -3.4850 H         1 UNK         0.0786 
    104 H104       26.1825   -6.3797   -2.5360 H         1 UNK         0.2977 
    105 H105       28.0277    2.4883   -6.5472 H         1 UNK         0.3127 
    106 H106       29.8048    4.6488   -7.3018 H         1 UNK         0.0770 
    107 H107       26.7978    4.9813   -7.8792 H         1 UNK         0.0814 
    108 H108       28.0868    6.0494   -8.4411 H         1 UNK         0.0814 
    109 H109       27.7143    5.9556   -6.7381 H         1 UNK         0.0814 
    110 H110       28.1030    4.7211   -9.8837 H         1 UNK         0.2983 
    111 H111       29.6797    2.9367  -11.3659 H         1 UNK         0.0947 
    112 H112       28.2281    3.6619  -13.2719 H         1 UNK         0.0806 
    113 H113       28.7161    5.0277  -12.2853 H         1 UNK         0.0806 
    114 H114       27.0835    4.3730  -12.1432 H         1 UNK         0.0806 
    115 H115       26.6734    2.2448   -9.7593 H         1 UNK         0.3000 
    116 H116       25.8609   -0.0417  -11.3111 H         1 UNK         0.0850 
    117 H117       25.3038    0.6357   -8.3753 H         1 UNK         0.0810 
    118 H118       24.4401   -0.5512   -9.3401 H         1 UNK         0.0810 
    119 H119       24.3140    1.1546   -9.7420 H         1 UNK         0.0810 
    120 H120       27.8328    0.3573   -8.3320 H         1 UNK         0.3040 
    121 H121       28.6486   -2.4410   -8.2336 H         1 UNK         0.0766 
    122 H122       29.6361    0.0548   -6.7478 H         1 UNK         0.0812 
    123 H123       28.4687   -1.1139   -6.1457 H         1 UNK         0.0812 
    124 H124       30.1383   -1.5965   -6.4171 H         1 UNK         0.0812 
    125 H125       29.9636    0.6347   -9.3836 H         1 UNK         0.3205 
    126 H126       31.6138    1.2720  -10.7045 H         1 UNK         0.0754 
    127 H127       32.6077   -0.2148  -12.4055 H         1 UNK         0.0769 
    128 H128       30.8670   -0.4483  -12.3484 H         1 UNK         0.0769 
    129 H129       31.9442   -1.6367  -11.6166 H         1 UNK         0.0769 
    130 H130       32.1915    1.3604   -8.2469 H         1 UNK         0.2981 
    131 H131       34.1934   -0.1609   -7.0964 H         1 UNK         0.0541 
    132 H132       37.4513    0.9861   -7.9360 H         1 UNK         0.3459 
    133 H133       36.4918   -0.0312   -6.8942 H         1 UNK         0.3459 
    134 H134       33.6557    2.8108   -6.5878 H         1 UNK         0.0612 
    135 H135       34.4732    1.7242   -5.4960 H         1 UNK         0.0612 
    136 H136       33.1501   -0.5623   -4.5064 H         1 UNK         0.0624 
    137 H137       33.2708    0.8530   -3.4791 H         1 UNK         0.0624 
@<TRIPOS>BOND
     1    1    2 1    
     2    1   72 1    
     3    1   73 1    
     4    1   74 1    
     5    2    3 2    
     6    2    4 am   BACKBONE|DICT|INTERRES
     7    4    5 1    
     8    4   75 1    
     9    5    6 1    
    10    5   35 1    
    11    5   76 1    
    12    6    7 1    
    13    6   77 1    
    14    6   78 1    
    15    7    8 1    
    16    8    9 1    
    17    8   79 1    
    18    8   80 1    
    19    9   10 ar   
    20    9   14 ar   
    21   10   11 ar   
    22   10   81 1    
    23   11   12 ar   
    24   11   71 1    
    25   12   13 ar   
    26   12   82 1    
    27   13   14 ar   
    28   13   15 1    
    29   14   83 1    
    30   15   16 1    
    31   15   84 1    
    32   15   85 1    
    33   16   17 1    
    34   17   18 1    
    35   17   86 1    
    36   17   87 1    
    37   18   19 1    
    38   18   37 1    
    39   18   88 1    
    40   19   20 am   BACKBONE|DICT|INTERRES
    41   19   89 1    
    42   20   21 2    
    43   20   22 1    
    44   22   23 1    
    45   22   24 1    
    46   22   90 1    
    47   23   91 1    
    48   23   92 1    
    49   23   93 1    
    50   24   25 am   BACKBONE|DICT|INTERRES
    51   24   94 1    
    52   25   26 2    
    53   25   27 1    
    54   27   28 1    
    55   27   29 1    
    56   27   95 1    
    57   28   96 1    
    58   28   97 1    
    59   28   98 1    
    60   29   30 am   BACKBONE|DICT|INTERRES
    61   29   99 1    
    62   30   31 2    
    63   30   32 1    
    64   32   33 1    
    65   32   34 1    
    66   32  100 1    
    67   33  101 1    
    68   33  102 1    
    69   33  103 1    
    70   34   35 am   BACKBONE|DICT|INTERRES
    71   34  104 1    
    72   35   36 2    
    73   37   38 2    
    74   37   39 am   BACKBONE|DICT|INTERRES
    75   39   40 1    
    76   39  105 1    
    77   40   41 1    
    78   40   42 1    
    79   40  106 1    
    80   41  107 1    
    81   41  108 1    
    82   41  109 1    
    83   42   43 2    
    84   42   44 am   BACKBONE|DICT|INTERRES
    85   44   45 1    
    86   44  110 1    
    87   45   46 1    
    88   45   47 1    
    89   45  111 1    
    90   46  112 1    
    91   46  113 1    
    92   46  114 1    
    93   47   48 2    
    94   47   49 am   BACKBONE|DICT|INTERRES
    95   49   50 1    
    96   49  115 1    
    97   50   51 1    
    98   50   52 1    
    99   50  116 1    
   100   51  117 1    
   101   51  118 1    
   102   51  119 1    
   103   52   53 2    
   104   52   54 am   BACKBONE|DICT|INTERRES
   105   54   55 1    
   106   54  120 1    
   107   55   56 1    
   108   55   57 1    
   109   55  121 1    
   110   56  122 1    
   111   56  123 1    
   112   56  124 1    
   113   57   58 2    
   114   57   59 am   BACKBONE|DICT|INTERRES
   115   59   60 1    
   116   59  125 1    
   117   60   61 1    
   118   60   62 1    
   119   60  126 1    
   120   61  127 1    
   121   61  128 1    
   122   61  129 1    
   123   62   63 2    
   124   62   64 am   BACKBONE|DICT|INTERRES
   125   64   65 1    
   126   64  130 1    
   127   65   66 1    
   128   65   69 1    
   129   65  131 1    
   130   66   67 am   BACKBONE|DICT|INTERRES
   131   66   68 2    
   132   67  132 1    
   133   67  133 1    
   134   69   70 1    
   135   69  134 1    
   136   69  135 1    
   137   70   71 1    
   138   71  136 1    
   139   71  137 1    
@<TRIPOS>SUBSTRUCTURE
     1 UNK         1 GROUP             0       ****    0 ROOT    
