@<TRIPOS>MOLECULE
3R137
137   139    1
SMALL
USER_CHARGES


@<TRIPOS>ATOM
      1 CA         27.9244   -7.5695   -2.9958 C.3       0 UNK        -0.2020 
      2 C          27.3141   -6.8000   -1.8340 C.2       0 UNK         0.4855 
      3 O          27.5263   -7.1635   -0.6770 O.2       0 UNK        -0.5197 
      4 N          26.5619   -5.7382   -2.1329 N.am      1 UNK        -0.4892 
      5 CA         25.8809   -4.8737   -1.1719 C.3       1 UNK         0.0835 
      6 C6         26.8434   -3.8751   -0.4682 C.3       12 UNK        -0.0855 
      7 S7         27.6925   -2.7023   -1.5864 S.3       12 UNK        -0.2931 
      8 C8         29.3174   -3.5052   -1.7716 C.3       12 UNK         0.0378 
      9 C9         30.1929   -2.7255   -2.7384 C.ar      12 UNK        -0.0802 
     10 C10        30.2881   -3.1080   -4.0802 C.ar      12 UNK        -0.0944 
     11 C11        31.0330   -2.3443   -4.9844 C.ar      12 UNK        -0.0787 
     12 C12        31.7200   -1.2164   -4.5265 C.ar      12 UNK        -0.0862 
     13 C13        31.6234   -0.8195   -3.1900 C.ar      12 UNK        -0.0733 
     14 C14        30.8712   -1.5875   -2.2971 C.ar      12 UNK        -0.0832 
     15 C15        32.2653    0.4795   -2.7208 C.3       12 UNK         0.0240 
     16 S16        31.5279    1.9572   -3.5053 S.3       12 UNK        -0.2522 
     17 C17        29.7327    1.6161   -3.4619 C.3       12 UNK        -0.0967 
     18 CA         29.2093    1.1209   -4.8402 C.3       5 UNK         0.0660 
     19 N          28.1948    0.0704   -4.7061 N.am      5 UNK        -0.4015 
     20 C          27.6709   -0.6198   -5.7305 C.2       4 UNK         0.4946 
     21 O          28.0544   -0.5061   -6.8929 O.2       4 UNK        -0.5353 
     22 CA         26.4688   -1.5356   -5.4378 C.3       4 UNK         0.0277 
     23 CB         26.9028   -3.0062   -5.3555 C.3       4 UNK        -0.1981 
     24 N          25.6946   -1.1591   -4.2484 N.am      4 UNK        -0.4209 
     25 C          25.0912    0.0289   -4.0785 C.2       3 UNK         0.4942 
     26 O          25.1235    0.9256   -4.9259 O.2       3 UNK        -0.5208 
     27 CA         24.4087    0.2874   -2.7203 C.3       3 UNK         0.0250 
     28 CB         23.3419    1.4017   -2.7926 C.3       3 UNK        -0.1990 
     29 N          23.8788   -0.9221   -2.0762 N.am      3 UNK        -0.4232 
     30 C          22.8825   -1.7077   -2.5140 C.2       2 UNK         0.4993 
     31 O          22.2485   -1.5067   -3.5514 O.2       2 UNK        -0.5286 
     32 CA         22.5574   -2.9318   -1.6308 C.3       2 UNK         0.0209 
     33 CB         21.5866   -3.9220   -2.3115 C.3       2 UNK        -0.1931 
     34 N          23.7583   -3.6348   -1.1479 N.am      2 UNK        -0.4546 
     35 C          24.7201   -4.1810   -1.9079 C.2       1 UNK         0.5154 
     36 O          24.7253   -4.1427   -3.1414 O.2       1 UNK        -0.5181 
     37 C          28.7436    2.2915   -5.7321 C.2       5 UNK         0.5014 
     38 O          29.5485    2.8210   -6.4996 O.2       5 UNK        -0.5248 
     39 N          27.4548    2.6515   -5.6531 N.am      6 UNK        -0.4434 
     40 CA         26.8451    3.6484   -6.5294 C.3       6 UNK         0.0363 
     41 CB         25.6040    4.2529   -5.8516 C.3       6 UNK        -0.1936 
     42 C          26.4880    3.0362   -7.8909 C.2       6 UNK         0.5081 
     43 O          26.8277    3.6170   -8.9218 O.2       6 UNK        -0.5248 
     44 N          25.8154    1.8756   -7.8717 N.am      7 UNK        -0.4718 
     45 CA         25.2731    1.2184   -9.0661 C.3       7 UNK         0.0273 
     46 CB         24.3486    0.0633   -8.6516 C.3       7 UNK        -0.1935 
     47 C          26.3398    0.7270  -10.0603 C.2       7 UNK         0.5018 
     48 O          26.1338    0.8590  -11.2674 O.2       7 UNK        -0.5186 
     49 N          27.4520    0.1825   -9.5489 N.am      8 UNK        -0.4240 
     50 CA         28.5658   -0.3430  -10.3437 C.3       8 UNK         0.0235 
     51 CB         28.9709   -1.7249   -9.7984 C.3       8 UNK        -0.2000 
     52 C          29.7641    0.6225  -10.3946 C.2       8 UNK         0.4941 
     53 O          30.8502    0.1887  -10.7790 O.2       8 UNK        -0.5273 
     54 N          29.5568    1.8971  -10.0209 N.am      9 UNK        -0.4262 
     55 CA         30.5029    3.0201  -10.0997 C.3       9 UNK         0.0264 
     56 CB         30.6834    3.4539  -11.5695 C.3       9 UNK        -0.1955 
     57 C          31.8468    2.7300   -9.4037 C.2       9 UNK         0.5031 
     58 O          32.8803    2.6059  -10.0661 O.2       9 UNK        -0.5390 
     59 N          31.7908    2.5781   -8.0740 N.am      10 UNK        -0.4204 
     60 CA         32.9012    2.2544   -7.1693 C.3       10 UNK         0.0237 
     61 CB         33.9199    3.4126   -7.1105 C.3       10 UNK        -0.1985 
     62 C          33.5633    0.8908   -7.4507 C.2       10 UNK         0.4970 
     63 O          34.7227    0.6928   -7.0848 O.2       10 UNK        -0.4914 
     64 N          32.8145   -0.0240   -8.0836 N.am      11 UNK        -0.4285 
     65 CA         33.2658   -1.3465   -8.5454 C.3       11 UNK         0.1007 
     66 C          34.2998   -1.2916   -9.7144 C.2       11 UNK         0.5703 
     67 N          34.4515   -0.1713  -10.4137 N.am      11 UNK        -0.7361 
     68 O          34.9511   -2.2873  -10.0221 O.2       11 UNK        -0.4986 
     69 C69        33.6702   -2.2913   -7.3614 C.3       12 UNK        -0.0947 
     70 S70        32.4503   -3.6098   -7.0421 S.3       12 UNK        -0.2240 
     71 C71        30.9983   -2.6729   -6.4698 C.3       12 UNK         0.0194 
     72 H72        27.6640   -7.1288   -3.9581 H         1 UNK         0.0906 
     73 H73        29.0107   -7.5776   -2.9104 H         1 UNK         0.0906 
     74 H74        27.5737   -8.6012   -2.9887 H         1 UNK         0.0906 
     75 H75        26.3576   -5.4893   -3.0942 H         1 UNK         0.3140 
     76 H76        25.4298   -5.5146   -0.4107 H         1 UNK         0.1085 
     77 H77        26.2975   -3.2910    0.2744 H         1 UNK         0.0836 
     78 H78        27.5906   -4.4280    0.1033 H         1 UNK         0.0836 
     79 H79        29.1861   -4.5275   -2.1262 H         1 UNK         0.0731 
     80 H80        29.8057   -3.5737   -0.7983 H         1 UNK         0.0731 
     81 H81        29.7455   -3.9751   -4.4305 H         1 UNK         0.1312 
     82 H82        32.2725   -0.6020   -5.2216 H         1 UNK         0.1406 
     83 H83        30.7751   -1.2780   -1.2650 H         1 UNK         0.1631 
     84 H84        33.3329    0.4555   -2.9432 H         1 UNK         0.0717 
     85 H85        32.1805    0.5828   -1.6379 H         1 UNK         0.0717 
     86 H86        29.5396    0.8815   -2.6796 H         1 UNK         0.0934 
     87 H87        29.2118    2.5168   -3.1303 H         1 UNK         0.0934 
     88 H88        30.0305    0.6535   -5.3842 H         1 UNK         0.0739 
     89 H89        27.8404   -0.1100   -3.7791 H         1 UNK         0.3093 
     90 H90        25.7969   -1.4440   -6.2901 H         1 UNK         0.0818 
     91 H91        27.5506   -3.2740   -6.1914 H         1 UNK         0.0819 
     92 H92        27.4463   -3.2177   -4.4369 H         1 UNK         0.0819 
     93 H93        26.0409   -3.6716   -5.3953 H         1 UNK         0.0819 
     94 H94        25.6035   -1.8620   -3.5268 H         1 UNK         0.3041 
     95 H95        25.2018    0.6468   -2.0630 H         1 UNK         0.0784 
     96 H96        22.8858    1.5798   -1.8189 H         1 UNK         0.0793 
     97 H97        23.7821    2.3448   -3.1193 H         1 UNK         0.0793 
     98 H98        22.5467    1.1568   -3.4972 H         1 UNK         0.0793 
     99 H99        24.3381   -1.1918   -1.2170 H         1 UNK         0.3024 
    100 H100       22.0511   -2.5352   -0.7489 H         1 UNK         0.1171 
    101 H101       21.3496   -4.7599   -1.6560 H         1 UNK         0.0786 
    102 H102       20.6443   -3.4345   -2.5647 H         1 UNK         0.0786 
    103 H103       22.0011   -4.3258   -3.2359 H         1 UNK         0.0786 
    104 H104       23.8443   -3.7061   -0.1427 H         1 UNK         0.2977 
    105 H105       26.8214    2.1159   -5.0699 H         1 UNK         0.3127 
    106 H106       27.5578    4.4587   -6.7002 H         1 UNK         0.0770 
    107 H107       24.8388    3.5025   -5.6502 H         1 UNK         0.0814 
    108 H108       25.1505    5.0170   -6.4842 H         1 UNK         0.0814 
    109 H109       25.8625    4.7282   -4.9053 H         1 UNK         0.0814 
    110 H110       25.5807    1.4688   -6.9728 H         1 UNK         0.2983 
    111 H111       24.6640    1.9601   -9.5878 H         1 UNK         0.0947 
    112 H112       23.8116   -0.3291   -9.5162 H         1 UNK         0.0806 
    113 H113       23.6022    0.3851   -7.9249 H         1 UNK         0.0806 
    114 H114       24.9070   -0.7658   -8.2204 H         1 UNK         0.0806 
    115 H115       27.5500    0.0910   -8.5375 H         1 UNK         0.3000 
    116 H116       28.2468   -0.4862  -11.3780 H         1 UNK         0.0850 
    117 H117       29.7196   -2.1968  -10.4359 H         1 UNK         0.0810 
    118 H118       28.1162   -2.3995   -9.7508 H         1 UNK         0.0810 
    119 H119       29.3955   -1.6532   -8.7991 H         1 UNK         0.0810 
    120 H120       28.6292    2.1382   -9.6952 H         1 UNK         0.3040 
    121 H121       30.0435    3.8525   -9.5636 H         1 UNK         0.0766 
    122 H122       31.1242    2.6606  -12.1746 H         1 UNK         0.0812 
    123 H123       31.3404    4.3215  -11.6423 H         1 UNK         0.0812 
    124 H124       29.7305    3.7295  -12.0211 H         1 UNK         0.0812 
    125 H125       30.8865    2.6921   -7.6091 H         1 UNK         0.3205 
    126 H126       32.4544    2.1643   -6.1811 H         1 UNK         0.0754 
    127 H127       34.6601    3.2447   -6.3272 H         1 UNK         0.0769 
    128 H128       33.4289    4.3604   -6.8899 H         1 UNK         0.0769 
    129 H129       34.4607    3.5244   -8.0507 H         1 UNK         0.0769 
    130 H130       31.8997    0.2551   -8.4067 H         1 UNK         0.2981 
    131 H131       32.3875   -1.7707   -9.0329 H         1 UNK         0.0541 
    132 H132       33.8923    0.6483  -10.2093 H         1 UNK         0.3459 
    133 H133       35.1102   -0.1520  -11.1753 H         1 UNK         0.3459 
    134 H134       33.8330   -1.7445   -6.4338 H         1 UNK         0.0612 
    135 H135       34.6224   -2.7897   -7.5478 H         1 UNK         0.0612 
    136 H136       30.1061   -3.2582   -6.6971 H         1 UNK         0.0624 
    137 H137       30.8949   -1.7505   -7.0396 H         1 UNK         0.0624 
@<TRIPOS>BOND
     1    1    2 1    
     2    1   72 1    
     3    1   73 1    
     4    1   74 1    
     5    2    3 2    
     6    2    4 am   BACKBONE|DICT|INTERRES
     7    4    5 1    
     8    4   75 1    
     9    5    6 1    
    10    5   35 1    
    11    5   76 1    
    12    6    7 1    
    13    6   77 1    
    14    6   78 1    
    15    7    8 1    
    16    8    9 1    
    17    8   79 1    
    18    8   80 1    
    19    9   10 ar   
    20    9   14 ar   
    21   10   11 ar   
    22   10   81 1    
    23   11   12 ar   
    24   11   71 1    
    25   12   13 ar   
    26   12   82 1    
    27   13   14 ar   
    28   13   15 1    
    29   14   83 1    
    30   15   16 1    
    31   15   84 1    
    32   15   85 1    
    33   16   17 1    
    34   17   18 1    
    35   17   86 1    
    36   17   87 1    
    37   18   19 1    
    38   18   37 1    
    39   18   88 1    
    40   19   20 am   BACKBONE|DICT|INTERRES
    41   19   89 1    
    42   20   21 2    
    43   20   22 1    
    44   22   23 1    
    45   22   24 1    
    46   22   90 1    
    47   23   91 1    
    48   23   92 1    
    49   23   93 1    
    50   24   25 am   BACKBONE|DICT|INTERRES
    51   24   94 1    
    52   25   26 2    
    53   25   27 1    
    54   27   28 1    
    55   27   29 1    
    56   27   95 1    
    57   28   96 1    
    58   28   97 1    
    59   28   98 1    
    60   29   30 am   BACKBONE|DICT|INTERRES
    61   29   99 1    
    62   30   31 2    
    63   30   32 1    
    64   32   33 1    
    65   32   34 1    
    66   32  100 1    
    67   33  101 1    
    68   33  102 1    
    69   33  103 1    
    70   34   35 am   BACKBONE|DICT|INTERRES
    71   34  104 1    
    72   35   36 2    
    73   37   38 2    
    74   37   39 am   BACKBONE|DICT|INTERRES
    75   39   40 1    
    76   39  105 1    
    77   40   41 1    
    78   40   42 1    
    79   40  106 1    
    80   41  107 1    
    81   41  108 1    
    82   41  109 1    
    83   42   43 2    
    84   42   44 am   BACKBONE|DICT|INTERRES
    85   44   45 1    
    86   44  110 1    
    87   45   46 1    
    88   45   47 1    
    89   45  111 1    
    90   46  112 1    
    91   46  113 1    
    92   46  114 1    
    93   47   48 2    
    94   47   49 am   BACKBONE|DICT|INTERRES
    95   49   50 1    
    96   49  115 1    
    97   50   51 1    
    98   50   52 1    
    99   50  116 1    
   100   51  117 1    
   101   51  118 1    
   102   51  119 1    
   103   52   53 2    
   104   52   54 am   BACKBONE|DICT|INTERRES
   105   54   55 1    
   106   54  120 1    
   107   55   56 1    
   108   55   57 1    
   109   55  121 1    
   110   56  122 1    
   111   56  123 1    
   112   56  124 1    
   113   57   58 2    
   114   57   59 am   BACKBONE|DICT|INTERRES
   115   59   60 1    
   116   59  125 1    
   117   60   61 1    
   118   60   62 1    
   119   60  126 1    
   120   61  127 1    
   121   61  128 1    
   122   61  129 1    
   123   62   63 2    
   124   62   64 am   BACKBONE|DICT|INTERRES
   125   64   65 1    
   126   64  130 1    
   127   65   66 1    
   128   65   69 1    
   129   65  131 1    
   130   66   67 am   BACKBONE|DICT|INTERRES
   131   66   68 2    
   132   67  132 1    
   133   67  133 1    
   134   69   70 1    
   135   69  134 1    
   136   69  135 1    
   137   70   71 1    
   138   71  136 1    
   139   71  137 1    
@<TRIPOS>SUBSTRUCTURE
     1 UNK         1 GROUP             0       ****    0 ROOT    
