@<TRIPOS>MOLECULE
3R137
137   139    1
SMALL
USER_CHARGES


@<TRIPOS>ATOM
      1 CA         25.9597   -6.1735   -4.9473 C.3       0 UNK        -0.2020 
      2 C          26.2180   -4.9222   -4.1240 C.2       0 UNK         0.4855 
      3 O          26.3244   -3.8330   -4.6876 O.2       0 UNK        -0.5197 
      4 N          26.2900   -5.0588   -2.7919 N.am      1 UNK        -0.4892 
      5 CA         26.6355   -4.0081   -1.8135 C.3       1 UNK         0.0835 
      6 C6         28.1240   -3.5754   -1.8922 C.3       12 UNK        -0.0855 
      7 S7         29.2931   -4.9739   -1.7662 S.3       12 UNK        -0.2931 
      8 C8         30.5915   -4.2813   -0.6928 C.3       12 UNK         0.0378 
      9 C9         31.3361   -3.1404   -1.3722 C.ar      12 UNK        -0.0802 
     10 C10        32.3347   -3.4129   -2.3122 C.ar      12 UNK        -0.0944 
     11 C11        33.0144   -2.3690   -2.9476 C.ar      12 UNK        -0.0787 
     12 C12        32.6983   -1.0456   -2.6283 C.ar      12 UNK        -0.0862 
     13 C13        31.7047   -0.7610   -1.6876 C.ar      12 UNK        -0.0733 
     14 C14        31.0296   -1.8120   -1.0607 C.ar      12 UNK        -0.0832 
     15 C15        31.3639    0.6783   -1.3335 C.3       12 UNK         0.0240 
     16 S16        29.9451    1.2883   -2.2948 S.3       12 UNK        -0.2522 
     17 C17        30.7498    1.7931   -3.8587 C.3       12 UNK        -0.0967 
     18 CA         29.8512    1.6756   -5.1148 C.3       5 UNK         0.0660 
     19 N          29.3269    0.3230   -5.3033 N.am      5 UNK        -0.4015 
     20 C          29.3971   -0.3734   -6.4426 C.2       4 UNK         0.4946 
     21 O          30.0092   -0.0158   -7.4514 O.2       4 UNK        -0.5353 
     22 CA         28.6012   -1.6848   -6.4819 C.3       4 UNK         0.0277 
     23 CB         29.3521   -2.7785   -5.7053 C.3       4 UNK        -0.1981 
     24 N          27.2095   -1.5775   -6.0114 N.am      4 UNK        -0.4209 
     25 C          26.3154   -0.6602   -6.4203 C.2       3 UNK         0.4942 
     26 O          26.6051    0.3028   -7.1335 O.2       3 UNK        -0.5208 
     27 CA         24.8446   -0.8245   -6.0093 C.3       3 UNK         0.0250 
     28 CB         24.0734   -1.5941   -7.0946 C.3       3 UNK        -0.1990 
     29 N          24.6363   -1.4787   -4.7120 N.am      3 UNK        -0.4232 
     30 C          23.7041   -1.0872   -3.8262 C.2       2 UNK         0.4993 
     31 O          23.0034   -0.0858   -3.9801 O.2       2 UNK        -0.5286 
     32 CA         23.4576   -1.9478   -2.5703 C.3       2 UNK         0.0209 
     33 CB         22.0707   -2.6109   -2.6386 C.3       2 UNK        -0.1931 
     34 N          24.4594   -2.9897   -2.3512 N.am      2 UNK        -0.4546 
     35 C          25.6860   -2.7840   -1.8553 C.2       1 UNK         0.5154 
     36 O          26.0738   -1.6827   -1.4616 O.2       1 UNK        -0.5181 
     37 C          28.7139    2.7152   -5.1060 C.2       5 UNK         0.5014 
     38 O          28.8918    3.7959   -5.6671 O.2       5 UNK        -0.5248 
     39 N          27.5689    2.3787   -4.4904 N.am      6 UNK        -0.4434 
     40 CA         26.4373    3.2816   -4.2501 C.3       6 UNK         0.0363 
     41 CB         25.4010    2.5674   -3.3698 C.3       6 UNK        -0.1936 
     42 C          25.7734    3.8339   -5.5229 C.2       6 UNK         0.5081 
     43 O          25.3576    4.9928   -5.5285 O.2       6 UNK        -0.5248 
     44 N          25.7057    3.0105   -6.5750 N.am      7 UNK        -0.4718 
     45 CA         25.2427    3.3910   -7.9122 C.3       7 UNK         0.0273 
     46 CB         24.1242    2.4226   -8.3381 C.3       7 UNK        -0.1935 
     47 C          26.4000    3.3725   -8.9281 C.2       7 UNK         0.5018 
     48 O          26.1519    3.5624  -10.1194 O.2       7 UNK        -0.5186 
     49 N          27.6289    3.1167   -8.4477 N.am      8 UNK        -0.4240 
     50 CA         28.8660    2.8869   -9.2026 C.3       8 UNK         0.0235 
     51 CB         29.3578    4.1986   -9.8494 C.3       8 UNK        -0.2000 
     52 C          28.7459    1.7248  -10.2098 C.2       8 UNK         0.4941 
     53 O          29.3064    1.8016  -11.3050 O.2       8 UNK        -0.5273 
     54 N          27.9972    0.6762   -9.8346 N.am      9 UNK        -0.4262 
     55 CA         27.6952   -0.4673  -10.6977 C.3       9 UNK         0.0264 
     56 CB         26.4866   -1.2283  -10.1303 C.3       9 UNK        -0.1955 
     57 C          28.8818   -1.4223  -10.9133 C.2       9 UNK         0.5031 
     58 O          28.8515   -2.1896  -11.8774 O.2       9 UNK        -0.5390 
     59 N          29.8871   -1.3832  -10.0298 N.am      10 UNK        -0.4204 
     60 CA         31.0661   -2.2407  -10.0823 C.3       10 UNK         0.0237 
     61 CB         30.7528   -3.6162   -9.4487 C.3       10 UNK        -0.1985 
     62 C          32.2620   -1.5004   -9.4661 C.2       10 UNK         0.4970 
     63 O          32.6878   -0.4844  -10.0160 O.2       10 UNK        -0.4914 
     64 N          32.8001   -2.0386   -8.3676 N.am      11 UNK        -0.4285 
     65 CA         34.0217   -1.5956   -7.6804 C.3       11 UNK         0.1007 
     66 C          33.9620   -0.2165   -6.9574 C.2       11 UNK         0.5703 
     67 N          32.8252    0.4612   -6.8731 N.am      11 UNK        -0.7361 
     68 O          34.9855    0.2600   -6.4727 O.2       11 UNK        -0.4986 
     69 C69        34.5667   -2.7248   -6.7642 C.3       12 UNK        -0.0947 
     70 S70        33.3486   -3.2838   -5.5232 S.3       12 UNK        -0.2240 
     71 C71        34.0876   -2.6657   -3.9820 C.3       12 UNK         0.0194 
     72 H72        25.8679   -7.0620   -4.3231 H         1 UNK         0.0906 
     73 H73        25.0394   -6.0618   -5.5198 H         1 UNK         0.0906 
     74 H74        26.7793   -6.3331   -5.6474 H         1 UNK         0.0906 
     75 H75        26.1761   -5.9813   -2.3939 H         1 UNK         0.3140 
     76 H76        26.4795   -4.4530   -0.8293 H         1 UNK         0.1085 
     77 H77        28.3439   -2.8683   -1.0914 H         1 UNK         0.0836 
     78 H78        28.3168   -3.0449   -2.8233 H         1 UNK         0.0836 
     79 H79        31.2968   -5.0735   -0.4371 H         1 UNK         0.0731 
     80 H80        30.1505   -3.9523    0.2496 H         1 UNK         0.0731 
     81 H81        32.5723   -4.4381   -2.5621 H         1 UNK         0.1312 
     82 H82        33.2280   -0.2376   -3.1135 H         1 UNK         0.1406 
     83 H83        30.2611   -1.5915   -0.3323 H         1 UNK         0.1631 
     84 H84        32.2249    1.3309   -1.4869 H         1 UNK         0.0717 
     85 H85        31.1207    0.7450   -0.2720 H         1 UNK         0.0717 
     86 H86        31.1184    2.8146   -3.7451 H         1 UNK         0.0934 
     87 H87        31.6374    1.1815   -4.0153 H         1 UNK         0.0934 
     88 H88        30.4783    1.9358   -5.9700 H         1 UNK         0.0739 
     89 H89        28.8413   -0.0877   -4.5205 H         1 UNK         0.3093 
     90 H90        28.5474   -1.9979   -7.5254 H         1 UNK         0.0818 
     91 H91        30.3576   -2.9175   -6.1025 H         1 UNK         0.0819 
     92 H92        29.4668   -2.5247   -4.6525 H         1 UNK         0.0819 
     93 H93        28.8447   -3.7408   -5.7701 H         1 UNK         0.0819 
     94 H94        26.8746   -2.3720   -5.4668 H         1 UNK         0.3041 
     95 H95        24.4407    0.1896   -5.9743 H         1 UNK         0.0784 
     96 H96        24.1866   -1.1204   -8.0700 H         1 UNK         0.0793 
     97 H97        24.4259   -2.6225   -7.1850 H         1 UNK         0.0793 
     98 H98        23.0060   -1.6237   -6.8750 H         1 UNK         0.0793 
     99 H99        25.1730   -2.3224   -4.5284 H         1 UNK         0.3024 
    100 H100       23.4698   -1.2689   -1.7142 H         1 UNK         0.1171 
    101 H101       21.8510   -3.1678   -1.7275 H         1 UNK         0.0786 
    102 H102       21.2839   -1.8641   -2.7551 H         1 UNK         0.0786 
    103 H103       21.9933   -3.2990   -3.4815 H         1 UNK         0.0786 
    104 H104       24.2282   -3.9219   -2.6639 H         1 UNK         0.2977 
    105 H105       27.5173    1.4807   -4.0360 H         1 UNK         0.3127 
    106 H106       26.8218    4.1376   -3.6913 H         1 UNK         0.0770 
    107 H107       25.0097    1.6765   -3.8592 H         1 UNK         0.0814 
    108 H108       24.5530    3.2193   -3.1550 H         1 UNK         0.0814 
    109 H109       25.8276    2.2666   -2.4127 H         1 UNK         0.0814 
    110 H110       26.0738    2.0667   -6.4961 H         1 UNK         0.2983 
    111 H111       24.8375    4.4051   -7.9086 H         1 UNK         0.0947 
    112 H112       23.6941    2.7180   -9.2959 H         1 UNK         0.0806 
    113 H113       23.3128    2.4079   -7.6104 H         1 UNK         0.0806 
    114 H114       24.4938    1.4030   -8.4496 H         1 UNK         0.0806 
    115 H115       27.7189    3.0445   -7.4430 H         1 UNK         0.3000 
    116 H116       29.6161    2.5761   -8.4736 H         1 UNK         0.0850 
    117 H117       30.3382    4.0653  -10.3082 H         1 UNK         0.0810 
    118 H118       29.4535    4.9928   -9.1090 H         1 UNK         0.0810 
    119 H119       28.6777    4.5447  -10.6283 H         1 UNK         0.0810 
    120 H120       27.5765    0.6772   -8.9101 H         1 UNK         0.3040 
    121 H121       27.4129   -0.0781  -11.6784 H         1 UNK         0.0766 
    122 H122       25.6312   -0.5669   -9.9932 H         1 UNK         0.0812 
    123 H123       26.7145   -1.6925   -9.1714 H         1 UNK         0.0812 
    124 H124       26.1752   -2.0242  -10.8080 H         1 UNK         0.0812 
    125 H125       29.8655   -0.7015   -9.2740 H         1 UNK         0.3205 
    126 H126       31.3348   -2.4076  -11.1277 H         1 UNK         0.0754 
    127 H127       31.6228   -4.2740   -9.4735 H         1 UNK         0.0769 
    128 H128       29.9606   -4.1263   -9.9971 H         1 UNK         0.0769 
    129 H129       30.4246   -3.5276   -8.4139 H         1 UNK         0.0769 
    130 H130       32.3637   -2.8564   -7.9697 H         1 UNK         0.2981 
    131 H131       34.7663   -1.4526   -8.4656 H         1 UNK         0.0541 
    132 H132       31.9614    0.1060   -7.2667 H         1 UNK         0.3459 
    133 H133       32.8390    1.3608   -6.4242 H         1 UNK         0.3459 
    134 H134       35.4978   -2.4262   -6.2795 H         1 UNK         0.0612 
    135 H135       34.8275   -3.5900   -7.3754 H         1 UNK         0.0612 
    136 H136       34.7869   -3.4073   -3.5935 H         1 UNK         0.0624 
    137 H137       34.6696   -1.7654   -4.1853 H         1 UNK         0.0624 
@<TRIPOS>BOND
     1    1    2 1    
     2    1   72 1    
     3    1   73 1    
     4    1   74 1    
     5    2    3 2    
     6    2    4 am   BACKBONE|DICT|INTERRES
     7    4    5 1    
     8    4   75 1    
     9    5    6 1    
    10    5   35 1    
    11    5   76 1    
    12    6    7 1    
    13    6   77 1    
    14    6   78 1    
    15    7    8 1    
    16    8    9 1    
    17    8   79 1    
    18    8   80 1    
    19    9   10 ar   
    20    9   14 ar   
    21   10   11 ar   
    22   10   81 1    
    23   11   12 ar   
    24   11   71 1    
    25   12   13 ar   
    26   12   82 1    
    27   13   14 ar   
    28   13   15 1    
    29   14   83 1    
    30   15   16 1    
    31   15   84 1    
    32   15   85 1    
    33   16   17 1    
    34   17   18 1    
    35   17   86 1    
    36   17   87 1    
    37   18   19 1    
    38   18   37 1    
    39   18   88 1    
    40   19   20 am   BACKBONE|DICT|INTERRES
    41   19   89 1    
    42   20   21 2    
    43   20   22 1    
    44   22   23 1    
    45   22   24 1    
    46   22   90 1    
    47   23   91 1    
    48   23   92 1    
    49   23   93 1    
    50   24   25 am   BACKBONE|DICT|INTERRES
    51   24   94 1    
    52   25   26 2    
    53   25   27 1    
    54   27   28 1    
    55   27   29 1    
    56   27   95 1    
    57   28   96 1    
    58   28   97 1    
    59   28   98 1    
    60   29   30 am   BACKBONE|DICT|INTERRES
    61   29   99 1    
    62   30   31 2    
    63   30   32 1    
    64   32   33 1    
    65   32   34 1    
    66   32  100 1    
    67   33  101 1    
    68   33  102 1    
    69   33  103 1    
    70   34   35 am   BACKBONE|DICT|INTERRES
    71   34  104 1    
    72   35   36 2    
    73   37   38 2    
    74   37   39 am   BACKBONE|DICT|INTERRES
    75   39   40 1    
    76   39  105 1    
    77   40   41 1    
    78   40   42 1    
    79   40  106 1    
    80   41  107 1    
    81   41  108 1    
    82   41  109 1    
    83   42   43 2    
    84   42   44 am   BACKBONE|DICT|INTERRES
    85   44   45 1    
    86   44  110 1    
    87   45   46 1    
    88   45   47 1    
    89   45  111 1    
    90   46  112 1    
    91   46  113 1    
    92   46  114 1    
    93   47   48 2    
    94   47   49 am   BACKBONE|DICT|INTERRES
    95   49   50 1    
    96   49  115 1    
    97   50   51 1    
    98   50   52 1    
    99   50  116 1    
   100   51  117 1    
   101   51  118 1    
   102   51  119 1    
   103   52   53 2    
   104   52   54 am   BACKBONE|DICT|INTERRES
   105   54   55 1    
   106   54  120 1    
   107   55   56 1    
   108   55   57 1    
   109   55  121 1    
   110   56  122 1    
   111   56  123 1    
   112   56  124 1    
   113   57   58 2    
   114   57   59 am   BACKBONE|DICT|INTERRES
   115   59   60 1    
   116   59  125 1    
   117   60   61 1    
   118   60   62 1    
   119   60  126 1    
   120   61  127 1    
   121   61  128 1    
   122   61  129 1    
   123   62   63 2    
   124   62   64 am   BACKBONE|DICT|INTERRES
   125   64   65 1    
   126   64  130 1    
   127   65   66 1    
   128   65   69 1    
   129   65  131 1    
   130   66   67 am   BACKBONE|DICT|INTERRES
   131   66   68 2    
   132   67  132 1    
   133   67  133 1    
   134   69   70 1    
   135   69  134 1    
   136   69  135 1    
   137   70   71 1    
   138   71  136 1    
   139   71  137 1    
@<TRIPOS>SUBSTRUCTURE
     1 UNK         1 GROUP             0       ****    0 ROOT    
