@<TRIPOS>MOLECULE
3R137
137   139    1
SMALL
USER_CHARGES


@<TRIPOS>ATOM
      1 CA         27.9612   -5.9657   -4.4492 C.3       0 UNK        -0.2020 
      2 C          27.3821   -5.1226   -3.3236 C.2       0 UNK         0.4855 
      3 O          26.1795   -5.1853   -3.0655 O.2       0 UNK        -0.5197 
      4 N          28.2322   -4.3477   -2.6406 N.am      1 UNK        -0.4892 
      5 CA         27.8642   -3.5125   -1.4926 C.3       1 UNK         0.0835 
      6 C6         29.0825   -3.1264   -0.6003 C.3       12 UNK        -0.0855 
      7 S7         30.3876   -4.4107   -0.4824 S.3       12 UNK        -0.2931 
      8 C8         31.8376   -3.6097   -1.2602 C.3       12 UNK         0.0378 
      9 C9         31.5252   -3.0319   -2.6351 C.ar      12 UNK        -0.0802 
     10 C10        31.4491   -3.8571   -3.7598 C.ar      12 UNK        -0.0944 
     11 C11        31.0997   -3.3270   -5.0075 C.ar      12 UNK        -0.0787 
     12 C12        30.7982   -1.9637   -5.1164 C.ar      12 UNK        -0.0862 
     13 C13        30.8971   -1.1238   -4.0013 C.ar      12 UNK        -0.0733 
     14 C14        31.2927   -1.6621   -2.7751 C.ar      12 UNK        -0.0832 
     15 C15        30.5634    0.3595   -4.1015 C.3       12 UNK         0.0240 
     16 S16        29.2630    0.8259   -2.9028 S.3       12 UNK        -0.2522 
     17 C17        28.1873    2.0198   -3.7713 C.3       12 UNK        -0.0967 
     18 CA         27.7500    1.6218   -5.2023 C.3       5 UNK         0.0660 
     19 N          27.2962    0.2312   -5.3204 N.am      5 UNK        -0.4015 
     20 C          27.1293   -0.3979   -6.4923 C.2       4 UNK         0.4946 
     21 O          27.4515    0.0940   -7.5737 O.2       4 UNK        -0.5353 
     22 CA         26.4564   -1.7774   -6.4738 C.3       4 UNK         0.0277 
     23 CB         27.4907   -2.9020   -6.3580 C.3       4 UNK        -0.1981 
     24 N          25.4781   -1.8916   -5.3935 N.am      4 UNK        -0.4209 
     25 C          24.2377   -1.3879   -5.4523 C.2       3 UNK         0.4942 
     26 O          23.7791   -0.8228   -6.4448 O.2       3 UNK        -0.5208 
     27 CA         23.3707   -1.5050   -4.1858 C.3       3 UNK         0.0250 
     28 CB         22.6093   -2.8399   -4.1777 C.3       3 UNK        -0.1990 
     29 N          24.1374   -1.3740   -2.9440 N.am      3 UNK        -0.4232 
     30 C          24.7854   -0.2634   -2.5657 C.2       2 UNK         0.4993 
     31 O          24.7714    0.7876   -3.2059 O.2       2 UNK        -0.5286 
     32 CA         25.6434   -0.3537   -1.2911 C.3       2 UNK         0.0209 
     33 CB         24.8042   -0.0005   -0.0531 C.3       2 UNK        -0.1931 
     34 N          26.3116   -1.6470   -1.0798 N.am      2 UNK        -0.4546 
     35 C          27.1163   -2.2493   -1.9680 C.2       1 UNK         0.5154 
     36 O          27.2923   -1.8266   -3.1139 O.2       1 UNK        -0.5181 
     37 C          26.7021    2.6063   -5.7566 C.2       5 UNK         0.5014 
     38 O          27.0770    3.5401   -6.4650 O.2       5 UNK        -0.5248 
     39 N          25.4111    2.3525   -5.4916 N.am      6 UNK        -0.4434 
     40 CA         24.2806    3.0808   -6.0799 C.3       6 UNK         0.0363 
     41 CB         22.9720    2.6268   -5.4146 C.3       6 UNK        -0.1936 
     42 C          24.1932    2.9307   -7.6113 C.2       6 UNK         0.5081 
     43 O          23.8031    3.8801   -8.2906 O.2       6 UNK        -0.5248 
     44 N          24.5973    1.7626   -8.1300 N.am      7 UNK        -0.4718 
     45 CA         24.7473    1.4826   -9.5622 C.3       7 UNK         0.0273 
     46 CB         24.6523   -0.0362   -9.7848 C.3       7 UNK        -0.1935 
     47 C          26.0555    2.0381  -10.1654 C.2       7 UNK         0.5018 
     48 O          26.2418    1.9253  -11.3777 O.2       7 UNK        -0.5186 
     49 N          26.9304    2.6141   -9.3261 N.am      8 UNK        -0.4240 
     50 CA         28.2409    3.1918   -9.6402 C.3       8 UNK         0.0235 
     51 CB         28.0957    4.4244  -10.5589 C.3       8 UNK        -0.2000 
     52 C          29.2635    2.1626  -10.1608 C.2       8 UNK         0.4941 
     53 O          30.0788    2.5000  -11.0216 O.2       8 UNK        -0.5273 
     54 N          29.2250    0.9323   -9.6244 N.am      9 UNK        -0.4262 
     55 CA         30.1778   -0.1341   -9.9535 C.3       9 UNK         0.0264 
     56 CB         29.6536   -1.4816   -9.4354 C.3       9 UNK        -0.1955 
     57 C          31.5883    0.1437   -9.4039 C.2       9 UNK         0.5031 
     58 O          32.5634   -0.0908  -10.1185 O.2       9 UNK        -0.5390 
     59 N          31.6512    0.6557   -8.1615 N.am      10 UNK        -0.4204 
     60 CA         32.8452    1.1077   -7.4289 C.3       10 UNK         0.0237 
     61 CB         33.2976    2.4786   -7.9741 C.3       10 UNK        -0.1985 
     62 C          33.9870    0.0691   -7.4087 C.2       10 UNK         0.4970 
     63 O          35.0937    0.3565   -7.8694 O.2       10 UNK        -0.4914 
     64 N          33.6791   -1.1336   -6.9070 N.am      11 UNK        -0.4285 
     65 CA         34.5585   -2.3152   -6.9603 C.3       11 UNK         0.1007 
     66 C          35.8381   -2.2403   -6.0765 C.2       11 UNK         0.5703 
     67 N          35.9378   -1.3185   -5.1260 N.am      11 UNK        -0.7361 
     68 O          36.7585   -3.0333   -6.2614 O.2       11 UNK        -0.4986 
     69 C69        33.7903   -3.6401   -6.6949 C.3       12 UNK        -0.0947 
     70 S70        32.1831   -3.7405   -7.5626 S.3       12 UNK        -0.2240 
     71 C71        31.0452   -4.2410   -6.2280 C.3       12 UNK         0.0194 
     72 H72        28.9381   -5.6024   -4.7630 H         1 UNK         0.0906 
     73 H73        28.0710   -6.9988   -4.1211 H         1 UNK         0.0906 
     74 H74        27.2993   -5.9560   -5.3141 H         1 UNK         0.0906 
     75 H75        29.2056   -4.2931   -2.9068 H         1 UNK         0.3140 
     76 H76        27.1746   -4.0968   -0.8791 H         1 UNK         0.1085 
     77 H77        29.5286   -2.1866   -0.9213 H         1 UNK         0.0836 
     78 H78        28.7321   -2.9259    0.4136 H         1 UNK         0.0836 
     79 H79        32.6422   -4.3414   -1.3465 H         1 UNK         0.0731 
     80 H80        32.2093   -2.8294   -0.5940 H         1 UNK         0.0731 
     81 H81        31.6562   -4.9139   -3.6584 H         1 UNK         0.1312 
     82 H82        30.4907   -1.5615   -6.0709 H         1 UNK         0.1406 
     83 H83        31.3653   -1.0142   -1.9120 H         1 UNK         0.1631 
     84 H84        30.2738    0.6016   -5.1202 H         1 UNK         0.0717 
     85 H85        31.4599    0.9446   -3.8929 H         1 UNK         0.0717 
     86 H86        27.3105    2.1669   -3.1373 H         1 UNK         0.0934 
     87 H87        28.7019    2.9824   -3.7935 H         1 UNK         0.0934 
     88 H88        28.6140    1.7360   -5.8576 H         1 UNK         0.0739 
     89 H89        27.1053   -0.2707   -4.4588 H         1 UNK         0.3093 
     90 H90        25.9387   -1.9049   -7.4264 H         1 UNK         0.0818 
     91 H91        27.0074   -3.8770   -6.3910 H         1 UNK         0.0819 
     92 H92        28.1935   -2.8685   -7.1886 H         1 UNK         0.0819 
     93 H93        28.0636   -2.8372   -5.4331 H         1 UNK         0.0819 
     94 H94        25.8201   -2.2625   -4.5140 H         1 UNK         0.3041 
     95 H95        22.6398   -0.6939   -4.2128 H         1 UNK         0.0784 
     96 H96        22.0159   -2.9557   -5.0858 H         1 UNK         0.0793 
     97 H97        23.2883   -3.6922   -4.1205 H         1 UNK         0.0793 
     98 H98        21.9219   -2.9000   -3.3337 H         1 UNK         0.0793 
     99 H99        24.2192   -2.1970   -2.3644 H         1 UNK         0.3024 
    100 H100       26.4311    0.3962   -1.3922 H         1 UNK         0.1171 
    101 H101       25.4240    0.0685    0.8411 H         1 UNK         0.0786 
    102 H102       24.3122    0.9656   -0.1775 H         1 UNK         0.0786 
    103 H103       24.0255   -0.7413    0.1326 H         1 UNK         0.0786 
    104 H104       26.2114   -2.0556   -0.1615 H         1 UNK         0.2977 
    105 H105       25.1825    1.6203   -4.8210 H         1 UNK         0.3127 
    106 H106       24.4230    4.1414   -5.8621 H         1 UNK         0.0770 
    107 H107       22.7777    1.5681   -5.5870 H         1 UNK         0.0814 
    108 H108       22.1205    3.1833   -5.8085 H         1 UNK         0.0814 
    109 H109       22.9968    2.7908   -4.3371 H         1 UNK         0.0814 
    110 H110       24.8516    1.0163   -7.4955 H         1 UNK         0.2983 
    111 H111       23.9205    1.9557  -10.0964 H         1 UNK         0.0947 
    112 H112       24.6382   -0.2742  -10.8491 H         1 UNK         0.0806 
    113 H113       23.7420   -0.4483   -9.3486 H         1 UNK         0.0806 
    114 H114       25.5022   -0.5604   -9.3488 H         1 UNK         0.0806 
    115 H115       26.6800    2.6486   -8.3450 H         1 UNK         0.3000 
    116 H116       28.6440    3.5457   -8.6905 H         1 UNK         0.0850 
    117 H117       29.0480    4.9444  -10.6698 H         1 UNK         0.0810 
    118 H118       27.3832    5.1410  -10.1503 H         1 UNK         0.0810 
    119 H119       27.7592    4.1481  -11.5586 H         1 UNK         0.0810 
    120 H120       28.5087    0.7125   -8.9320 H         1 UNK         0.3040 
    121 H121       30.2476   -0.1963  -11.0417 H         1 UNK         0.0766 
    122 H122       28.6516   -1.6921   -9.8100 H         1 UNK         0.0812 
    123 H123       29.6176   -1.5021   -8.3475 H         1 UNK         0.0812 
    124 H124       30.3009   -2.2997   -9.7543 H         1 UNK         0.0812 
    125 H125       30.7695    0.8042   -7.6935 H         1 UNK         0.3205 
    126 H126       32.5435    1.2518   -6.3906 H         1 UNK         0.0754 
    127 H127       34.1404    2.8704   -7.4031 H         1 UNK         0.0769 
    128 H128       32.4954    3.2141   -7.9126 H         1 UNK         0.0769 
    129 H129       33.6105    2.4137   -9.0171 H         1 UNK         0.0769 
    130 H130       32.7519   -1.3023   -6.5491 H         1 UNK         0.2981 
    131 H131       34.9205   -2.3683   -7.9890 H         1 UNK         0.0541 
    132 H132       35.1883   -0.6650   -4.9690 H         1 UNK         0.3459 
    133 H133       36.7724   -1.2775   -4.5629 H         1 UNK         0.3459 
    134 H134       33.6402   -3.7787   -5.6240 H         1 UNK         0.0612 
    135 H135       34.3927   -4.4908   -7.0180 H         1 UNK         0.0612 
    136 H136       31.2805   -5.2694   -5.9499 H         1 UNK         0.0624 
    137 H137       30.0306   -4.2584   -6.6233 H         1 UNK         0.0624 
@<TRIPOS>BOND
     1    1    2 1    
     2    1   72 1    
     3    1   73 1    
     4    1   74 1    
     5    2    3 2    
     6    2    4 am   BACKBONE|DICT|INTERRES
     7    4    5 1    
     8    4   75 1    
     9    5    6 1    
    10    5   35 1    
    11    5   76 1    
    12    6    7 1    
    13    6   77 1    
    14    6   78 1    
    15    7    8 1    
    16    8    9 1    
    17    8   79 1    
    18    8   80 1    
    19    9   10 ar   
    20    9   14 ar   
    21   10   11 ar   
    22   10   81 1    
    23   11   12 ar   
    24   11   71 1    
    25   12   13 ar   
    26   12   82 1    
    27   13   14 ar   
    28   13   15 1    
    29   14   83 1    
    30   15   16 1    
    31   15   84 1    
    32   15   85 1    
    33   16   17 1    
    34   17   18 1    
    35   17   86 1    
    36   17   87 1    
    37   18   19 1    
    38   18   37 1    
    39   18   88 1    
    40   19   20 am   BACKBONE|DICT|INTERRES
    41   19   89 1    
    42   20   21 2    
    43   20   22 1    
    44   22   23 1    
    45   22   24 1    
    46   22   90 1    
    47   23   91 1    
    48   23   92 1    
    49   23   93 1    
    50   24   25 am   BACKBONE|DICT|INTERRES
    51   24   94 1    
    52   25   26 2    
    53   25   27 1    
    54   27   28 1    
    55   27   29 1    
    56   27   95 1    
    57   28   96 1    
    58   28   97 1    
    59   28   98 1    
    60   29   30 am   BACKBONE|DICT|INTERRES
    61   29   99 1    
    62   30   31 2    
    63   30   32 1    
    64   32   33 1    
    65   32   34 1    
    66   32  100 1    
    67   33  101 1    
    68   33  102 1    
    69   33  103 1    
    70   34   35 am   BACKBONE|DICT|INTERRES
    71   34  104 1    
    72   35   36 2    
    73   37   38 2    
    74   37   39 am   BACKBONE|DICT|INTERRES
    75   39   40 1    
    76   39  105 1    
    77   40   41 1    
    78   40   42 1    
    79   40  106 1    
    80   41  107 1    
    81   41  108 1    
    82   41  109 1    
    83   42   43 2    
    84   42   44 am   BACKBONE|DICT|INTERRES
    85   44   45 1    
    86   44  110 1    
    87   45   46 1    
    88   45   47 1    
    89   45  111 1    
    90   46  112 1    
    91   46  113 1    
    92   46  114 1    
    93   47   48 2    
    94   47   49 am   BACKBONE|DICT|INTERRES
    95   49   50 1    
    96   49  115 1    
    97   50   51 1    
    98   50   52 1    
    99   50  116 1    
   100   51  117 1    
   101   51  118 1    
   102   51  119 1    
   103   52   53 2    
   104   52   54 am   BACKBONE|DICT|INTERRES
   105   54   55 1    
   106   54  120 1    
   107   55   56 1    
   108   55   57 1    
   109   55  121 1    
   110   56  122 1    
   111   56  123 1    
   112   56  124 1    
   113   57   58 2    
   114   57   59 am   BACKBONE|DICT|INTERRES
   115   59   60 1    
   116   59  125 1    
   117   60   61 1    
   118   60   62 1    
   119   60  126 1    
   120   61  127 1    
   121   61  128 1    
   122   61  129 1    
   123   62   63 2    
   124   62   64 am   BACKBONE|DICT|INTERRES
   125   64   65 1    
   126   64  130 1    
   127   65   66 1    
   128   65   69 1    
   129   65  131 1    
   130   66   67 am   BACKBONE|DICT|INTERRES
   131   66   68 2    
   132   67  132 1    
   133   67  133 1    
   134   69   70 1    
   135   69  134 1    
   136   69  135 1    
   137   70   71 1    
   138   71  136 1    
   139   71  137 1    
@<TRIPOS>SUBSTRUCTURE
     1 UNK         1 GROUP             0       ****    0 ROOT    
