@<TRIPOS>MOLECULE
3R137
137   139    1
SMALL
USER_CHARGES


@<TRIPOS>ATOM
      1 CA         25.6899   -5.0836    3.0418 C.3       0 UNK        -0.2020 
      2 C          26.4564   -3.8972    2.4773 C.2       0 UNK         0.4855 
      3 O          26.4056   -2.8062    3.0474 O.2       0 UNK        -0.5197 
      4 N          27.1684   -4.0963    1.3604 N.am      1 UNK        -0.4892 
      5 CA         27.9277   -3.0606    0.6542 C.3       1 UNK         0.0835 
      6 C6         29.0840   -3.6774   -0.1857 C.3       12 UNK        -0.0855 
      7 S7         30.4973   -2.5413   -0.4264 S.3       12 UNK        -0.2931 
      8 C8         30.0641   -1.5948   -1.9266 C.3       12 UNK         0.0378 
      9 C9         30.2519   -2.3802   -3.2191 C.ar      12 UNK        -0.0802 
     10 C10        31.4409   -2.2573   -3.9416 C.ar      12 UNK        -0.0944 
     11 C11        31.6041   -2.9174   -5.1628 C.ar      12 UNK        -0.0787 
     12 C12        30.5737   -3.7289   -5.6523 C.ar      12 UNK        -0.0862 
     13 C13        29.3880   -3.8826   -4.9261 C.ar      12 UNK        -0.0733 
     14 C14        29.2283   -3.1888   -3.7231 C.ar      12 UNK        -0.0832 
     15 C15        28.3068   -4.8527   -5.3882 C.3       12 UNK         0.0240 
     16 S16        26.7247   -4.0342   -5.7760 S.3       12 UNK        -0.2522 
     17 C17        26.8348   -3.7853   -7.5835 C.3       12 UNK        -0.0967 
     18 CA         26.6154   -2.3212   -8.0356 C.3       5 UNK         0.0660 
     19 N          25.3655   -1.7499   -7.5238 N.am      5 UNK        -0.4015 
     20 C          24.8763   -0.5445   -7.8481 C.2       4 UNK         0.4946 
     21 O          25.4011    0.2046   -8.6729 O.2       4 UNK        -0.5353 
     22 CA         23.6118   -0.0668   -7.1118 C.3       4 UNK         0.0277 
     23 CB         22.3722   -0.2790   -7.9952 C.3       4 UNK        -0.1981 
     24 N          23.3825   -0.6798   -5.7961 N.am      4 UNK        -0.4209 
     25 C          24.2177   -0.6105   -4.7501 C.2       3 UNK         0.4942 
     26 O          25.3385   -0.0929   -4.7957 O.2       3 UNK        -0.5208 
     27 CA         23.7248   -1.2474   -3.4447 C.3       3 UNK         0.0250 
     28 CB         23.8388   -2.7836   -3.5055 C.3       3 UNK        -0.1990 
     29 N          24.5402   -0.7225   -2.3561 N.am      3 UNK        -0.4232 
     30 C          24.3054   -0.8330   -1.0447 C.2       2 UNK         0.4993 
     31 O          23.3104   -1.3772   -0.5603 O.2       2 UNK        -0.5286 
     32 CA         25.3844   -0.2425   -0.1154 C.3       2 UNK         0.0209 
     33 CB         24.7538    0.5904    1.0148 C.3       2 UNK        -0.1931 
     34 N          26.2683   -1.2552    0.4761 N.am      2 UNK        -0.4546 
     35 C          26.9645   -2.1924   -0.1839 C.2       1 UNK         0.5154 
     36 O          26.8647   -2.3923   -1.3933 O.2       1 UNK        -0.5181 
     37 C          27.8486   -1.4456   -7.7411 C.2       5 UNK         0.5014 
     38 O          28.7247   -1.3491   -8.6004 O.2       5 UNK        -0.5248 
     39 N          27.8699   -0.7870   -6.5718 N.am      6 UNK        -0.4434 
     40 CA         28.9338    0.1296   -6.1624 C.3       6 UNK         0.0363 
     41 CB         28.7041    0.5644   -4.7072 C.3       6 UNK        -0.1936 
     42 C          29.0244    1.3616   -7.0747 C.2       6 UNK         0.5081 
     43 O          30.1278    1.7970   -7.4005 O.2       6 UNK        -0.5248 
     44 N          27.8624    1.8850   -7.4876 N.am      7 UNK        -0.4718 
     45 CA         27.7506    2.9947   -8.4310 C.3       7 UNK         0.0273 
     46 CB         26.3550    3.6304   -8.3226 C.3       7 UNK        -0.1935 
     47 C          28.0423    2.5438   -9.8690 C.2       7 UNK         0.5018 
     48 O          28.7996    3.2185  -10.5660 O.2       7 UNK        -0.5186 
     49 N          27.4573    1.4077  -10.2779 N.am      8 UNK        -0.4240 
     50 CA         27.5835    0.8374  -11.6223 C.3       8 UNK         0.0235 
     51 CB         26.6316   -0.3597  -11.7709 C.3       8 UNK        -0.2000 
     52 C          29.0213    0.4360  -11.9897 C.2       8 UNK         0.4941 
     53 O          29.4626    0.7369  -13.0995 O.2       8 UNK        -0.5273 
     54 N          29.7307   -0.2139  -11.0565 N.am      9 UNK        -0.4262 
     55 CA         31.1334   -0.6076  -11.2208 C.3       9 UNK         0.0264 
     56 CB         31.3956   -1.8817  -10.4021 C.3       9 UNK        -0.1955 
     57 C          32.1285    0.5095  -10.8490 C.2       9 UNK         0.5031 
     58 O          33.3258    0.3291  -11.0773 O.2       9 UNK        -0.5390 
     59 N          31.6308    1.6299  -10.2997 N.am      10 UNK        -0.4204 
     60 CA         32.3727    2.8098   -9.8361 C.3       10 UNK         0.0237 
     61 CB         32.9985    3.5671  -11.0268 C.3       10 UNK        -0.1985 
     62 C          33.3894    2.4660   -8.7299 C.2       10 UNK         0.4970 
     63 O          34.5667    2.8179   -8.8306 O.2       10 UNK        -0.4914 
     64 N          32.9046    1.7683   -7.6979 N.am      11 UNK        -0.4285 
     65 CA         33.6861    1.3120   -6.5390 C.3       11 UNK         0.1007 
     66 C          33.9587    2.4198   -5.4811 C.2       11 UNK         0.5703 
     67 N          33.3122    3.5783   -5.5451 N.am      11 UNK        -0.7361 
     68 O          34.7824    2.2270   -4.5899 O.2       11 UNK        -0.4986 
     69 C69        33.0471    0.0616   -5.8804 C.3       12 UNK        -0.0947 
     70 S70        32.8773   -1.3310   -7.0472 S.3       12 UNK        -0.2240 
     71 C71        32.9060   -2.7712   -5.9370 C.3       12 UNK         0.0194 
     72 H72        25.8332   -5.9843    2.4451 H         1 UNK         0.0906 
     73 H73        26.0210   -5.2944    4.0584 H         1 UNK         0.0906 
     74 H74        24.6234   -4.8614    3.0700 H         1 UNK         0.0906 
     75 H75        27.1484   -5.0038    0.9160 H         1 UNK         0.3140 
     76 H76        28.3825   -2.4110    1.4062 H         1 UNK         0.1085 
     77 H77        29.4963   -4.5320    0.3533 H         1 UNK         0.0836 
     78 H78        28.7428   -4.0924   -1.1331 H         1 UNK         0.0836 
     79 H79        29.0484   -1.2117   -1.8595 H         1 UNK         0.0731 
     80 H80        30.6973   -0.7066   -1.9530 H         1 UNK         0.0731 
     81 H81        32.2372   -1.6344   -3.5586 H         1 UNK         0.1312 
     82 H82        30.7059   -4.2567   -6.5868 H         1 UNK         0.1406 
     83 H83        28.2996   -3.2889   -3.1821 H         1 UNK         0.1631 
     84 H84        28.1271   -5.5677   -4.5842 H         1 UNK         0.0717 
     85 H85        28.6445   -5.4460   -6.2389 H         1 UNK         0.0717 
     86 H86        27.7883   -4.1594   -7.9617 H         1 UNK         0.0934 
     87 H87        26.0764   -4.4198   -8.0448 H         1 UNK         0.0934 
     88 H88        26.5124   -2.3410   -9.1216 H         1 UNK         0.0739 
     89 H89        24.8844   -2.2938   -6.8230 H         1 UNK         0.3093 
     90 H90        23.7324    1.0063   -6.9489 H         1 UNK         0.0818 
     91 H91        21.4824    0.1626   -7.5460 H         1 UNK         0.0819 
     92 H92        22.5038    0.1895   -8.9720 H         1 UNK         0.0819 
     93 H93        22.1740   -1.3378   -8.1664 H         1 UNK         0.0819 
     94 H94        22.4908   -1.1374   -5.6675 H         1 UNK         0.3041 
     95 H95        22.6854   -0.9552   -3.2824 H         1 UNK         0.0784 
     96 H96        23.3057   -3.1931   -4.3641 H         1 UNK         0.0793 
     97 H97        24.8794   -3.1015   -3.5803 H         1 UNK         0.0793 
     98 H98        23.4168   -3.2495   -2.6151 H         1 UNK         0.0793 
     99 H99        25.3853   -0.2688   -2.6833 H         1 UNK         0.3024 
    100 H100       26.0128    0.4270   -0.7068 H         1 UNK         0.1171 
    101 H101       25.5146    1.1055    1.6017 H         1 UNK         0.0786 
    102 H102       24.0853    1.3527    0.6123 H         1 UNK         0.0786 
    103 H103       24.1688   -0.0303    1.6951 H         1 UNK         0.0786 
    104 H104       26.3427   -1.2546    1.4865 H         1 UNK         0.2977 
    105 H105       27.0862   -0.8888   -5.9374 H         1 UNK         0.3127 
    106 H106       29.8779   -0.4158   -6.2223 H         1 UNK         0.0770 
    107 H107       27.8303    1.2101   -4.6099 H         1 UNK         0.0814 
    108 H108       29.5647    1.1150   -4.3257 H         1 UNK         0.0814 
    109 H109       28.5472   -0.2942   -4.0575 H         1 UNK         0.0814 
    110 H110       27.0037    1.4314   -7.2078 H         1 UNK         0.2983 
    111 H111       28.4898    3.7532   -8.1627 H         1 UNK         0.0947 
    112 H112       26.2588    4.4749   -9.0064 H         1 UNK         0.0806 
    113 H113       26.1686    4.0063   -7.3166 H         1 UNK         0.0806 
    114 H114       25.5626    2.9221   -8.5673 H         1 UNK         0.0806 
    115 H115       26.8195    0.9348   -9.6398 H         1 UNK         0.3000 
    116 H116       27.2682    1.6078  -12.3293 H         1 UNK         0.0850 
    117 H117       26.6597   -0.7564  -12.7866 H         1 UNK         0.0810 
    118 H118       25.5998   -0.0767  -11.5609 H         1 UNK         0.0810 
    119 H119       26.9004   -1.1721  -11.0967 H         1 UNK         0.0810 
    120 H120       29.2901   -0.4677  -10.1731 H         1 UNK         0.3040 
    121 H121       31.3136   -0.8517  -12.2700 H         1 UNK         0.0766 
    122 H122       31.2040   -1.7211   -9.3423 H         1 UNK         0.0812 
    123 H123       32.4308   -2.2106  -10.5006 H         1 UNK         0.0812 
    124 H124       30.7600   -2.7030  -10.7329 H         1 UNK         0.0812 
    125 H125       30.6300    1.6719  -10.1610 H         1 UNK         0.3205 
    126 H126       31.6347    3.4710   -9.3788 H         1 UNK         0.0754 
    127 H127       33.4611    4.4982  -10.6970 H         1 UNK         0.0769 
    128 H128       32.2441    3.8258  -11.7700 H         1 UNK         0.0769 
    129 H129       33.7706    2.9784  -11.5232 H         1 UNK         0.0769 
    130 H130       31.9032    1.5866   -7.6597 H         1 UNK         0.2981 
    131 H131       34.6690    1.0122   -6.9075 H         1 UNK         0.0541 
    132 H132       32.6276    3.7396   -6.2661 H         1 UNK         0.3459 
    133 H133       33.5023    4.2898   -4.8574 H         1 UNK         0.3459 
    134 H134       32.0624    0.3013   -5.4764 H         1 UNK         0.0612 
    135 H135       33.6564   -0.2706   -5.0382 H         1 UNK         0.0612 
    136 H136       33.7518   -2.6935   -5.2523 H         1 UNK         0.0624 
    137 H137       33.0828   -3.6660   -6.5354 H         1 UNK         0.0624 
@<TRIPOS>BOND
     1    1    2 1    
     2    1   72 1    
     3    1   73 1    
     4    1   74 1    
     5    2    3 2    
     6    2    4 am   BACKBONE|DICT|INTERRES
     7    4    5 1    
     8    4   75 1    
     9    5    6 1    
    10    5   35 1    
    11    5   76 1    
    12    6    7 1    
    13    6   77 1    
    14    6   78 1    
    15    7    8 1    
    16    8    9 1    
    17    8   79 1    
    18    8   80 1    
    19    9   10 ar   
    20    9   14 ar   
    21   10   11 ar   
    22   10   81 1    
    23   11   12 ar   
    24   11   71 1    
    25   12   13 ar   
    26   12   82 1    
    27   13   14 ar   
    28   13   15 1    
    29   14   83 1    
    30   15   16 1    
    31   15   84 1    
    32   15   85 1    
    33   16   17 1    
    34   17   18 1    
    35   17   86 1    
    36   17   87 1    
    37   18   19 1    
    38   18   37 1    
    39   18   88 1    
    40   19   20 am   BACKBONE|DICT|INTERRES
    41   19   89 1    
    42   20   21 2    
    43   20   22 1    
    44   22   23 1    
    45   22   24 1    
    46   22   90 1    
    47   23   91 1    
    48   23   92 1    
    49   23   93 1    
    50   24   25 am   BACKBONE|DICT|INTERRES
    51   24   94 1    
    52   25   26 2    
    53   25   27 1    
    54   27   28 1    
    55   27   29 1    
    56   27   95 1    
    57   28   96 1    
    58   28   97 1    
    59   28   98 1    
    60   29   30 am   BACKBONE|DICT|INTERRES
    61   29   99 1    
    62   30   31 2    
    63   30   32 1    
    64   32   33 1    
    65   32   34 1    
    66   32  100 1    
    67   33  101 1    
    68   33  102 1    
    69   33  103 1    
    70   34   35 am   BACKBONE|DICT|INTERRES
    71   34  104 1    
    72   35   36 2    
    73   37   38 2    
    74   37   39 am   BACKBONE|DICT|INTERRES
    75   39   40 1    
    76   39  105 1    
    77   40   41 1    
    78   40   42 1    
    79   40  106 1    
    80   41  107 1    
    81   41  108 1    
    82   41  109 1    
    83   42   43 2    
    84   42   44 am   BACKBONE|DICT|INTERRES
    85   44   45 1    
    86   44  110 1    
    87   45   46 1    
    88   45   47 1    
    89   45  111 1    
    90   46  112 1    
    91   46  113 1    
    92   46  114 1    
    93   47   48 2    
    94   47   49 am   BACKBONE|DICT|INTERRES
    95   49   50 1    
    96   49  115 1    
    97   50   51 1    
    98   50   52 1    
    99   50  116 1    
   100   51  117 1    
   101   51  118 1    
   102   51  119 1    
   103   52   53 2    
   104   52   54 am   BACKBONE|DICT|INTERRES
   105   54   55 1    
   106   54  120 1    
   107   55   56 1    
   108   55   57 1    
   109   55  121 1    
   110   56  122 1    
   111   56  123 1    
   112   56  124 1    
   113   57   58 2    
   114   57   59 am   BACKBONE|DICT|INTERRES
   115   59   60 1    
   116   59  125 1    
   117   60   61 1    
   118   60   62 1    
   119   60  126 1    
   120   61  127 1    
   121   61  128 1    
   122   61  129 1    
   123   62   63 2    
   124   62   64 am   BACKBONE|DICT|INTERRES
   125   64   65 1    
   126   64  130 1    
   127   65   66 1    
   128   65   69 1    
   129   65  131 1    
   130   66   67 am   BACKBONE|DICT|INTERRES
   131   66   68 2    
   132   67  132 1    
   133   67  133 1    
   134   69   70 1    
   135   69  134 1    
   136   69  135 1    
   137   70   71 1    
   138   71  136 1    
   139   71  137 1    
@<TRIPOS>SUBSTRUCTURE
     1 UNK         1 GROUP             0       ****    0 ROOT    
