@<TRIPOS>MOLECULE
3R137
137   139    1
SMALL
USER_CHARGES


@<TRIPOS>ATOM
      1 CA         27.2040   -5.6272    1.2436 C.3       0 UNK        -0.2020 
      2 C          27.1303   -4.1082    1.2051 C.2       0 UNK         0.4855 
      3 O          26.5254   -3.5016    2.0893 O.2       0 UNK        -0.5197 
      4 N          27.7424   -3.4898    0.1869 N.am      1 UNK        -0.4892 
      5 CA         27.7685   -2.0338   -0.0135 C.3       1 UNK         0.0835 
      6 C6         28.8762   -1.6041   -1.0054 C.3       12 UNK        -0.0855 
      7 S7         30.5556   -1.9596   -0.3888 S.3       12 UNK        -0.2931 
      8 C8         30.9676   -3.5289   -1.2210 C.3       12 UNK         0.0378 
      9 C9         30.9712   -3.4216   -2.7413 C.ar      12 UNK        -0.0802 
     10 C10        31.8508   -2.5459   -3.3839 C.ar      12 UNK        -0.0944 
     11 C11        31.8984   -2.4824   -4.7790 C.ar      12 UNK        -0.0787 
     12 C12        31.0595   -3.3078   -5.5346 C.ar      12 UNK        -0.0862 
     13 C13        30.1679   -4.1848   -4.9051 C.ar      12 UNK        -0.0733 
     14 C14        30.1271   -4.2323   -3.5078 C.ar      12 UNK        -0.0832 
     15 C15        29.3025   -5.1406   -5.7211 C.3       12 UNK         0.0240 
     16 S16        28.3688   -4.3288   -7.0572 S.3       12 UNK        -0.2522 
     17 C17        27.0310   -3.4916   -6.1419 C.3       12 UNK        -0.0967 
     18 CA         26.4525   -2.3129   -6.9655 C.3       5 UNK         0.0660 
     19 N          25.0772   -1.9858   -6.5945 N.am      5 UNK        -0.4015 
     20 C          24.1027   -1.7173   -7.4767 C.2       4 UNK         0.4946 
     21 O          24.2186   -1.8558   -8.6948 O.2       4 UNK        -0.5353 
     22 CA         22.7657   -1.1884   -6.9233 C.3       4 UNK         0.0277 
     23 CB         21.7603   -2.3401   -6.7602 C.3       4 UNK        -0.1981 
     24 N          22.8837   -0.4695   -5.6527 N.am      4 UNK        -0.4209 
     25 C          23.6200    0.6325   -5.4481 C.2       3 UNK         0.4942 
     26 O          24.2693    1.2014   -6.3241 O.2       3 UNK        -0.5208 
     27 CA         23.7024    1.1437   -4.0012 C.3       3 UNK         0.0250 
     28 CB         22.5737    2.1487   -3.7227 C.3       3 UNK        -0.1990 
     29 N          23.6777    0.0809   -2.9871 N.am      3 UNK        -0.4232 
     30 C          24.5276   -0.9546   -2.9222 C.2       2 UNK         0.4993 
     31 O          25.4078   -1.1839   -3.7584 O.2       2 UNK        -0.5286 
     32 CA         24.3269   -1.9348   -1.7575 C.3       2 UNK         0.0209 
     33 CB         23.6041   -3.2002   -2.2471 C.3       2 UNK        -0.1931 
     34 N          25.6083   -2.3130   -1.1627 N.am      2 UNK        -0.4546 
     35 C          26.4056   -1.4800   -0.4777 C.2       1 UNK         0.5154 
     36 O          26.1039   -0.3161   -0.2081 O.2       1 UNK        -0.5181 
     37 C          27.3290   -1.0551   -6.8587 C.2       5 UNK         0.5014 
     38 O          28.0173   -0.7231   -7.8222 O.2       5 UNK        -0.5248 
     39 N          27.2791   -0.3656   -5.7091 N.am      6 UNK        -0.4434 
     40 CA         28.1790    0.7372   -5.3571 C.3       6 UNK         0.0363 
     41 CB         27.9182    1.1647   -3.9052 C.3       6 UNK        -0.1936 
     42 C          28.1327    1.9542   -6.2993 C.2       6 UNK         0.5081 
     43 O          29.1553    2.6203   -6.4587 O.2       6 UNK        -0.5248 
     44 N          26.9703    2.2310   -6.9066 N.am      7 UNK        -0.4718 
     45 CA         26.8072    3.3005   -7.8967 C.3       7 UNK         0.0273 
     46 CB         25.3874    3.8806   -7.7814 C.3       7 UNK        -0.1935 
     47 C          27.0756    2.8311   -9.3389 C.2       7 UNK         0.5018 
     48 O          27.1872    3.6811  -10.2238 O.2       7 UNK        -0.5186 
     49 N          27.1408    1.5122   -9.5669 N.am      8 UNK        -0.4240 
     50 CA         27.3000    0.9036  -10.8888 C.3       8 UNK         0.0235 
     51 CB         26.3635   -0.3114  -11.0030 C.3       8 UNK        -0.2000 
     52 C          28.7533    0.4889  -11.1548 C.2       8 UNK         0.4941 
     53 O          29.2667    0.7511  -12.2438 O.2       8 UNK        -0.5273 
     54 N          29.3824   -0.1668  -10.1724 N.am      9 UNK        -0.4262 
     55 CA         30.7614   -0.6448  -10.2325 C.3       9 UNK         0.0264 
     56 CB         30.9531   -1.7289   -9.1589 C.3       9 UNK        -0.1955 
     57 C          31.7690    0.4977  -10.0338 C.2       9 UNK         0.5031 
     58 O          31.4656    1.4926   -9.3698 O.2       9 UNK        -0.5390 
     59 N          32.9784    0.3126  -10.5757 N.am      10 UNK        -0.4204 
     60 CA         34.1113    1.2293  -10.4329 C.3       10 UNK         0.0237 
     61 CB         35.0633    1.0379  -11.6292 C.3       10 UNK        -0.1985 
     62 C          34.8129    1.0292   -9.0759 C.2       10 UNK         0.4970 
     63 O          35.9610    0.5830   -9.0347 O.2       10 UNK        -0.4914 
     64 N          34.0951    1.3345   -7.9885 N.am      11 UNK        -0.4285 
     65 CA         34.5673    1.1958   -6.6007 C.3       11 UNK         0.1007 
     66 C          35.6843    2.1972   -6.1825 C.2       11 UNK         0.5703 
     67 N          35.9329    3.2692   -6.9259 N.am      11 UNK        -0.7361 
     68 O          36.3418    1.9917   -5.1649 O.2       11 UNK        -0.4986 
     69 C69        33.3989    1.2307   -5.5798 C.3       12 UNK        -0.0947 
     70 S70        32.0748    0.0245   -5.9182 S.3       12 UNK        -0.2240 
     71 C71        32.8777   -1.5407   -5.4618 C.3       12 UNK         0.0194 
     72 H72        26.2014   -6.0524    1.2049 H         1 UNK         0.0906 
     73 H73        27.7762   -6.0311    0.4086 H         1 UNK         0.0906 
     74 H74        27.6776   -5.9559    2.1684 H         1 UNK         0.0906 
     75 H75        28.2339   -4.0370   -0.5033 H         1 UNK         0.3140 
     76 H76        27.9800   -1.5665    0.9514 H         1 UNK         0.1085 
     77 H77        28.8350   -0.5253   -1.1676 H         1 UNK         0.0836 
     78 H78        28.7234   -2.0576   -1.9862 H         1 UNK         0.0836 
     79 H79        31.9594   -3.8433   -0.8929 H         1 UNK         0.0731 
     80 H80        30.2813   -4.3059   -0.8836 H         1 UNK         0.0731 
     81 H81        32.5053   -1.9188   -2.7939 H         1 UNK         0.1312 
     82 H82        31.1070   -3.2750   -6.6141 H         1 UNK         0.1406 
     83 H83        29.4576   -4.9253   -3.0168 H         1 UNK         0.1631 
     84 H84        28.6021   -5.6813   -5.0825 H         1 UNK         0.0717 
     85 H85        29.9536   -5.8941   -6.1661 H         1 UNK         0.0717 
     86 H86        26.2550   -4.2360   -5.9564 H         1 UNK         0.0934 
     87 H87        27.3814   -3.1707   -5.1583 H         1 UNK         0.0934 
     88 H88        26.4632   -2.6139   -8.0157 H         1 UNK         0.0739 
     89 H89        24.9114   -1.8071   -5.6100 H         1 UNK         0.3093 
     90 H90        22.3684   -0.4858   -7.6589 H         1 UNK         0.0818 
     91 H91        20.7778   -1.9721   -6.4640 H         1 UNK         0.0819 
     92 H92        21.6309   -2.8805   -7.6992 H         1 UNK         0.0819 
     93 H93        22.0901   -3.0621   -6.0120 H         1 UNK         0.0819 
     94 H94        22.3890   -0.8595   -4.8640 H         1 UNK         0.3041 
     95 H95        24.6520    1.6696   -3.8987 H         1 UNK         0.0784 
     96 H96        22.5840    2.9587   -4.4538 H         1 UNK         0.0793 
     97 H97        21.5906    1.6786   -3.7710 H         1 UNK         0.0793 
     98 H98        22.6811    2.6044   -2.7381 H         1 UNK         0.0793 
     99 H99        22.9807    0.1780   -2.2623 H         1 UNK         0.3024 
    100 H100       23.7211   -1.4579   -0.9836 H         1 UNK         0.1171 
    101 H101       22.6291   -2.9557   -2.6709 H         1 UNK         0.0786 
    102 H102       23.4328   -3.9007   -1.4294 H         1 UNK         0.0786 
    103 H103       24.1742   -3.7188   -3.0194 H         1 UNK         0.0786 
    104 H104       25.9422   -3.2464   -1.3499 H         1 UNK         0.2977 
    105 H105       26.6503   -0.6824   -4.9726 H         1 UNK         0.3127 
    106 H106       29.1920    0.3351   -5.4076 H         1 UNK         0.0770 
    107 H107       26.9339    1.6151   -3.7878 H         1 UNK         0.0814 
    108 H108       28.6546    1.9000   -3.5784 H         1 UNK         0.0814 
    109 H109       27.9809    0.3162   -3.2252 H         1 UNK         0.0814 
    110 H110       26.1463    1.6716   -6.7000 H         1 UNK         0.2983 
    111 H111       27.5124    4.1068   -7.6827 H         1 UNK         0.0947 
    112 H112       25.2685    4.7507   -8.4284 H         1 UNK         0.0806 
    113 H113       25.1687    4.2013   -6.7627 H         1 UNK         0.0806 
    114 H114       24.6293    3.1538   -8.0750 H         1 UNK         0.0806 
    115 H115       27.1341    0.8820   -8.7731 H         1 UNK         0.3000 
    116 H116       27.0114    1.6164  -11.6645 H         1 UNK         0.0850 
    117 H117       26.4500   -0.7807  -11.9838 H         1 UNK         0.0810 
    118 H118       25.3207   -0.0210  -10.8732 H         1 UNK         0.0810 
    119 H119       26.5895   -1.0730  -10.2555 H         1 UNK         0.0810 
    120 H120       28.8925   -0.3243   -9.2917 H         1 UNK         0.3040 
    121 H121       30.9300   -1.0926  -11.2143 H         1 UNK         0.0766 
    122 H122       30.2933   -2.5793   -9.3322 H         1 UNK         0.0812 
    123 H123       30.7360   -1.3431   -8.1626 H         1 UNK         0.0812 
    124 H124       31.9763   -2.1063   -9.1488 H         1 UNK         0.0812 
    125 H125       33.1605   -0.5488  -11.0712 H         1 UNK         0.3205 
    126 H126       33.7456    2.2582  -10.4637 H         1 UNK         0.0754 
    127 H127       35.9124    1.7198  -11.5652 H         1 UNK         0.0769 
    128 H128       34.5581    1.2413  -12.5737 H         1 UNK         0.0769 
    129 H129       35.4619    0.0234  -11.6740 H         1 UNK         0.0769 
    130 H130       33.1355    1.6385   -8.1149 H         1 UNK         0.2981 
    131 H131       35.0255    0.2078   -6.5281 H         1 UNK         0.0541 
    132 H132       35.3970    3.4491   -7.7593 H         1 UNK         0.3459 
    133 H133       36.6615    3.9065   -6.6454 H         1 UNK         0.3459 
    134 H134       32.9416    2.2218   -5.5698 H         1 UNK         0.0612 
    135 H135       33.7634    1.0575   -4.5654 H         1 UNK         0.0612 
    136 H136       33.2853   -2.0056   -6.3607 H         1 UNK         0.0624 
    137 H137       33.7270   -1.3498   -4.8041 H         1 UNK         0.0624 
@<TRIPOS>BOND
     1    1    2 1    
     2    1   72 1    
     3    1   73 1    
     4    1   74 1    
     5    2    3 2    
     6    2    4 am   BACKBONE|DICT|INTERRES
     7    4    5 1    
     8    4   75 1    
     9    5    6 1    
    10    5   35 1    
    11    5   76 1    
    12    6    7 1    
    13    6   77 1    
    14    6   78 1    
    15    7    8 1    
    16    8    9 1    
    17    8   79 1    
    18    8   80 1    
    19    9   10 ar   
    20    9   14 ar   
    21   10   11 ar   
    22   10   81 1    
    23   11   12 ar   
    24   11   71 1    
    25   12   13 ar   
    26   12   82 1    
    27   13   14 ar   
    28   13   15 1    
    29   14   83 1    
    30   15   16 1    
    31   15   84 1    
    32   15   85 1    
    33   16   17 1    
    34   17   18 1    
    35   17   86 1    
    36   17   87 1    
    37   18   19 1    
    38   18   37 1    
    39   18   88 1    
    40   19   20 am   BACKBONE|DICT|INTERRES
    41   19   89 1    
    42   20   21 2    
    43   20   22 1    
    44   22   23 1    
    45   22   24 1    
    46   22   90 1    
    47   23   91 1    
    48   23   92 1    
    49   23   93 1    
    50   24   25 am   BACKBONE|DICT|INTERRES
    51   24   94 1    
    52   25   26 2    
    53   25   27 1    
    54   27   28 1    
    55   27   29 1    
    56   27   95 1    
    57   28   96 1    
    58   28   97 1    
    59   28   98 1    
    60   29   30 am   BACKBONE|DICT|INTERRES
    61   29   99 1    
    62   30   31 2    
    63   30   32 1    
    64   32   33 1    
    65   32   34 1    
    66   32  100 1    
    67   33  101 1    
    68   33  102 1    
    69   33  103 1    
    70   34   35 am   BACKBONE|DICT|INTERRES
    71   34  104 1    
    72   35   36 2    
    73   37   38 2    
    74   37   39 am   BACKBONE|DICT|INTERRES
    75   39   40 1    
    76   39  105 1    
    77   40   41 1    
    78   40   42 1    
    79   40  106 1    
    80   41  107 1    
    81   41  108 1    
    82   41  109 1    
    83   42   43 2    
    84   42   44 am   BACKBONE|DICT|INTERRES
    85   44   45 1    
    86   44  110 1    
    87   45   46 1    
    88   45   47 1    
    89   45  111 1    
    90   46  112 1    
    91   46  113 1    
    92   46  114 1    
    93   47   48 2    
    94   47   49 am   BACKBONE|DICT|INTERRES
    95   49   50 1    
    96   49  115 1    
    97   50   51 1    
    98   50   52 1    
    99   50  116 1    
   100   51  117 1    
   101   51  118 1    
   102   51  119 1    
   103   52   53 2    
   104   52   54 am   BACKBONE|DICT|INTERRES
   105   54   55 1    
   106   54  120 1    
   107   55   56 1    
   108   55   57 1    
   109   55  121 1    
   110   56  122 1    
   111   56  123 1    
   112   56  124 1    
   113   57   58 2    
   114   57   59 am   BACKBONE|DICT|INTERRES
   115   59   60 1    
   116   59  125 1    
   117   60   61 1    
   118   60   62 1    
   119   60  126 1    
   120   61  127 1    
   121   61  128 1    
   122   61  129 1    
   123   62   63 2    
   124   62   64 am   BACKBONE|DICT|INTERRES
   125   64   65 1    
   126   64  130 1    
   127   65   66 1    
   128   65   69 1    
   129   65  131 1    
   130   66   67 am   BACKBONE|DICT|INTERRES
   131   66   68 2    
   132   67  132 1    
   133   67  133 1    
   134   69   70 1    
   135   69  134 1    
   136   69  135 1    
   137   70   71 1    
   138   71  136 1    
   139   71  137 1    
@<TRIPOS>SUBSTRUCTURE
     1 UNK         1 GROUP             0       ****    0 ROOT    
