@<TRIPOS>MOLECULE
3R137
137   139    1
SMALL
USER_CHARGES


@<TRIPOS>ATOM
      1 CA         27.8823   -6.7860   -3.7527 C.3       0 UNK        -0.2020 
      2 C          27.1986   -5.9844   -2.6553 C.2       0 UNK         0.4855 
      3 O          26.2370   -6.4649   -2.0545 O.2       0 UNK        -0.5197 
      4 N          27.6939   -4.7710   -2.3830 N.am      1 UNK        -0.4892 
      5 CA         27.1230   -3.8351   -1.4108 C.3       1 UNK         0.0835 
      6 C6         28.1281   -2.7170   -1.0440 C.3       12 UNK        -0.0855 
      7 S7         29.4624   -3.2957    0.0682 S.3       12 UNK        -0.2931 
      8 C8         30.7569   -3.9526   -1.0441 C.3       12 UNK         0.0378 
      9 C9         31.0392   -3.0467   -2.2338 C.ar      12 UNK        -0.0802 
     10 C10        31.4665   -1.7299   -2.0401 C.ar      12 UNK        -0.0944 
     11 C11        31.6396   -0.8625   -3.1230 C.ar      12 UNK        -0.0787 
     12 C12        31.3636   -1.3358   -4.4134 C.ar      12 UNK        -0.0862 
     13 C13        30.9861   -2.6660   -4.6273 C.ar      12 UNK        -0.0733 
     14 C14        30.8439   -3.5208   -3.5322 C.ar      12 UNK        -0.0832 
     15 C15        30.7514   -3.1724   -6.0468 C.3       12 UNK         0.0240 
     16 S16        29.2316   -4.1675   -6.2572 S.3       12 UNK        -0.2522 
     17 C17        27.9236   -3.1170   -5.5388 C.3       12 UNK        -0.0967 
     18 CA         27.2924   -2.1290   -6.5484 C.3       5 UNK         0.0660 
     19 N          25.9318   -1.7491   -6.1537 N.am      5 UNK        -0.4015 
     20 C          25.1001   -1.0251   -6.9191 C.2       4 UNK         0.4946 
     21 O          25.3731   -0.6429   -8.0563 O.2       4 UNK        -0.5353 
     22 CA         23.7517   -0.6181   -6.3059 C.3       4 UNK         0.0277 
     23 CB         22.7160   -1.7381   -6.4909 C.3       4 UNK        -0.1981 
     24 N          23.8295   -0.2586   -4.8895 N.am      4 UNK        -0.4209 
     25 C          24.6011    0.6913   -4.3469 C.2       3 UNK         0.4942 
     26 O          25.3728    1.3917   -5.0013 O.2       3 UNK        -0.5208 
     27 CA         24.5326    0.8834   -2.8180 C.3       3 UNK         0.0250 
     28 CB         23.4708    1.9358   -2.4455 C.3       3 UNK        -0.1990 
     29 N          24.3614   -0.3573   -2.0408 N.am      3 UNK        -0.4232 
     30 C          23.3289   -1.2154   -2.0342 C.2       2 UNK         0.4993 
     31 O          22.2935   -1.0354   -2.6777 O.2       2 UNK        -0.5286 
     32 CA         23.4909   -2.5111   -1.2127 C.3       2 UNK         0.0209 
     33 CB         22.6614   -3.6734   -1.8012 C.3       2 UNK        -0.1931 
     34 N          24.8808   -2.9499   -1.0036 N.am      2 UNK        -0.4546 
     35 C          25.8006   -3.2378   -1.9389 C.2       1 UNK         0.5154 
     36 O          25.6551   -3.0220   -3.1471 O.2       1 UNK        -0.5181 
     37 C          28.1847   -0.8893   -6.7542 C.2       5 UNK         0.5014 
     38 O          28.8562   -0.7822   -7.7817 O.2       5 UNK        -0.5248 
     39 N          28.1467    0.0386   -5.7869 N.am      6 UNK        -0.4434 
     40 CA         28.8823    1.3017   -5.8216 C.3       6 UNK         0.0363 
     41 CB         28.7690    2.0088   -4.4618 C.3       6 UNK        -0.1936 
     42 C          28.4147    2.2153   -6.9622 C.2       6 UNK         0.5081 
     43 O          29.2531    2.7845   -7.6579 O.2       6 UNK        -0.5248 
     44 N          27.0935    2.3013   -7.1658 N.am      7 UNK        -0.4718 
     45 CA         26.4745    3.0441   -8.2652 C.3       7 UNK         0.0273 
     46 CB         24.9488    3.0551   -8.0805 C.3       7 UNK        -0.1935 
     47 C          26.8531    2.4990   -9.6546 C.2       7 UNK         0.5018 
     48 O          27.0935    3.2928  -10.5651 O.2       7 UNK        -0.5186 
     49 N          26.9002    1.1668   -9.7923 N.am      8 UNK        -0.4240 
     50 CA         27.2421    0.4796  -11.0363 C.3       8 UNK         0.0235 
     51 CB         26.7256   -0.9685  -10.9865 C.3       8 UNK        -0.2000 
     52 C          28.7462    0.5062  -11.3494 C.2       8 UNK         0.4941 
     53 O          29.1217    0.8984  -12.4552 O.2       8 UNK        -0.5273 
     54 N          29.5742    0.0454  -10.4018 N.am      9 UNK        -0.4262 
     55 CA         30.9889   -0.2621  -10.6386 C.3       9 UNK         0.0264 
     56 CB         31.3298   -1.5779   -9.9173 C.3       9 UNK        -0.1955 
     57 C          31.9596    0.8434  -10.1962 C.2       9 UNK         0.5031 
     58 O          33.1598    0.6959  -10.4362 O.2       9 UNK        -0.5390 
     59 N          31.4686    1.8873   -9.5075 N.am      10 UNK        -0.4204 
     60 CA         32.2504    2.9781   -8.8958 C.3       10 UNK         0.0237 
     61 CB         32.9330    3.8414   -9.9790 C.3       10 UNK        -0.1985 
     62 C          33.2417    2.4992   -7.8111 C.2       10 UNK         0.4970 
     63 O          34.1880    3.2203   -7.4907 O.2       10 UNK        -0.4914 
     64 N          33.0111    1.2886   -7.2821 N.am      11 UNK        -0.4285 
     65 CA         33.8726    0.5568   -6.3384 C.3       11 UNK         0.1007 
     66 C          35.2680    0.1678   -6.9166 C.2       11 UNK         0.5703 
     67 N          35.4461    0.1258   -8.2335 N.am      11 UNK        -0.7361 
     68 O          36.1947   -0.1340   -6.1681 O.2       11 UNK        -0.4986 
     69 C69        33.9474    1.2155   -4.9284 C.3       12 UNK        -0.0947 
     70 S70        32.3150    1.6872   -4.2519 S.3       12 UNK        -0.2240 
     71 C71        32.1018    0.5675   -2.8234 C.3       12 UNK         0.0194 
     72 H72        28.8269   -6.3381   -4.0586 H         1 UNK         0.0906 
     73 H73        28.0880   -7.7988   -3.4072 H         1 UNK         0.0906 
     74 H74        27.2365   -6.8484   -4.6282 H         1 UNK         0.0906 
     75 H75        28.4631   -4.4123   -2.9262 H         1 UNK         0.3140 
     76 H76        26.8889   -4.4005   -0.5054 H         1 UNK         0.1085 
     77 H77        28.5351   -2.2421   -1.9376 H         1 UNK         0.0836 
     78 H78        27.6227   -1.9156   -0.5014 H         1 UNK         0.0836 
     79 H79        31.6767   -4.0879   -0.4735 H         1 UNK         0.0731 
     80 H80        30.4564   -4.9479   -1.3750 H         1 UNK         0.0731 
     81 H81        31.6379   -1.3717   -1.0338 H         1 UNK         0.1312 
     82 H82        31.4421   -0.6768   -5.2625 H         1 UNK         0.1406 
     83 H83        30.5591   -4.5508   -3.6953 H         1 UNK         0.1631 
     84 H84        31.6057   -3.7834   -6.3408 H         1 UNK         0.0717 
     85 H85        30.7238   -2.3409   -6.7487 H         1 UNK         0.0717 
     86 H86        28.2728   -2.6112   -4.6373 H         1 UNK         0.0934 
     87 H87        27.1567   -3.8133   -5.1963 H         1 UNK         0.0934 
     88 H88        27.2053   -2.6322   -7.5141 H         1 UNK         0.0739 
     89 H89        25.6280   -2.0315   -5.2290 H         1 UNK         0.3093 
     90 H90        23.4007    0.2646   -6.8436 H         1 UNK         0.0818 
     91 H91        21.7281   -1.4239   -6.1534 H         1 UNK         0.0819 
     92 H92        22.6249   -2.0169   -7.5418 H         1 UNK         0.0819 
     93 H93        22.9889   -2.6366   -5.9356 H         1 UNK         0.0819 
     94 H94        23.1964   -0.7401   -4.2546 H         1 UNK         0.3041 
     95 H95        25.5035    1.2824   -2.5194 H         1 UNK         0.0784 
     96 H96        23.6696    2.8823   -2.9502 H         1 UNK         0.0793 
     97 H97        22.4659    1.6234   -2.7312 H         1 UNK         0.0793 
     98 H98        23.4685    2.1346   -1.3739 H         1 UNK         0.0793 
     99 H99        25.1658   -0.6258   -1.4923 H         1 UNK         0.3024 
    100 H100       23.0858   -2.2838   -0.2251 H         1 UNK         0.1171 
    101 H101       22.7609   -4.5769   -1.1997 H         1 UNK         0.0786 
    102 H102       22.9713   -3.9136   -2.8191 H         1 UNK         0.0786 
    103 H103       21.5994   -3.4261   -1.8335 H         1 UNK         0.0786 
    104 H104       25.1267   -3.1216   -0.0376 H         1 UNK         0.2977 
    105 H105       27.5159   -0.0941   -5.0107 H         1 UNK         0.3127 
    106 H106       29.9332    1.0687   -6.0002 H         1 UNK         0.0770 
    107 H107       27.7407    2.2818   -4.2251 H         1 UNK         0.0814 
    108 H108       29.3577    2.9270   -4.4547 H         1 UNK         0.0814 
    109 H109       29.1446    1.3788   -3.6555 H         1 UNK         0.0814 
    110 H110       26.4700    1.8352   -6.5105 H         1 UNK         0.2983 
    111 H111       26.8329    4.0742   -8.2081 H         1 UNK         0.0947 
    112 H112       24.4660    3.6476   -8.8587 H         1 UNK         0.0806 
    113 H113       24.6679    3.4878   -7.1201 H         1 UNK         0.0806 
    114 H114       24.5305    2.0496   -8.1292 H         1 UNK         0.0806 
    115 H115       26.6247    0.5829   -9.0073 H         1 UNK         0.3000 
    116 H116       26.7265    0.9849  -11.8562 H         1 UNK         0.0850 
    117 H117       26.9728   -1.5056  -11.9032 H         1 UNK         0.0810 
    118 H118       25.6413   -0.9965  -10.8767 H         1 UNK         0.0810 
    119 H119       27.1570   -1.5250  -10.1532 H         1 UNK         0.0810 
    120 H120       29.1939   -0.2404   -9.4991 H         1 UNK         0.3040 
    121 H121       31.1568   -0.4213  -11.7060 H         1 UNK         0.0766 
    122 H122       32.3455   -1.9019  -10.1487 H         1 UNK         0.0812 
    123 H123       31.2625   -1.4706   -8.8355 H         1 UNK         0.0812 
    124 H124       30.6583   -2.3828  -10.2168 H         1 UNK         0.0812 
    125 H125       30.4736    1.9150   -9.3130 H         1 UNK         0.3205 
    126 H126       31.5382    3.6212   -8.3795 H         1 UNK         0.0754 
    127 H127       33.3778    4.7369   -9.5434 H         1 UNK         0.0769 
    128 H128       32.2169    4.1716  -10.7315 H         1 UNK         0.0769 
    129 H129       33.7305    3.3000  -10.4887 H         1 UNK         0.0769 
    130 H130       32.2080    0.7827   -7.6207 H         1 UNK         0.2981 
    131 H131       33.3907   -0.4102   -6.2110 H         1 UNK         0.0541 
    132 H132       34.6944    0.3620   -8.8691 H         1 UNK         0.3459 
    133 H133       36.3475   -0.1374   -8.5986 H         1 UNK         0.3459 
    134 H134       34.5615    2.1165   -4.9670 H         1 UNK         0.0612 
    135 H135       34.4414    0.5439   -4.2245 H         1 UNK         0.0612 
    136 H136       33.0355    0.5344   -2.2601 H         1 UNK         0.0624 
    137 H137       31.3651    1.0256   -2.1621 H         1 UNK         0.0624 
@<TRIPOS>BOND
     1    1    2 1    
     2    1   72 1    
     3    1   73 1    
     4    1   74 1    
     5    2    3 2    
     6    2    4 am   BACKBONE|DICT|INTERRES
     7    4    5 1    
     8    4   75 1    
     9    5    6 1    
    10    5   35 1    
    11    5   76 1    
    12    6    7 1    
    13    6   77 1    
    14    6   78 1    
    15    7    8 1    
    16    8    9 1    
    17    8   79 1    
    18    8   80 1    
    19    9   10 ar   
    20    9   14 ar   
    21   10   11 ar   
    22   10   81 1    
    23   11   12 ar   
    24   11   71 1    
    25   12   13 ar   
    26   12   82 1    
    27   13   14 ar   
    28   13   15 1    
    29   14   83 1    
    30   15   16 1    
    31   15   84 1    
    32   15   85 1    
    33   16   17 1    
    34   17   18 1    
    35   17   86 1    
    36   17   87 1    
    37   18   19 1    
    38   18   37 1    
    39   18   88 1    
    40   19   20 am   BACKBONE|DICT|INTERRES
    41   19   89 1    
    42   20   21 2    
    43   20   22 1    
    44   22   23 1    
    45   22   24 1    
    46   22   90 1    
    47   23   91 1    
    48   23   92 1    
    49   23   93 1    
    50   24   25 am   BACKBONE|DICT|INTERRES
    51   24   94 1    
    52   25   26 2    
    53   25   27 1    
    54   27   28 1    
    55   27   29 1    
    56   27   95 1    
    57   28   96 1    
    58   28   97 1    
    59   28   98 1    
    60   29   30 am   BACKBONE|DICT|INTERRES
    61   29   99 1    
    62   30   31 2    
    63   30   32 1    
    64   32   33 1    
    65   32   34 1    
    66   32  100 1    
    67   33  101 1    
    68   33  102 1    
    69   33  103 1    
    70   34   35 am   BACKBONE|DICT|INTERRES
    71   34  104 1    
    72   35   36 2    
    73   37   38 2    
    74   37   39 am   BACKBONE|DICT|INTERRES
    75   39   40 1    
    76   39  105 1    
    77   40   41 1    
    78   40   42 1    
    79   40  106 1    
    80   41  107 1    
    81   41  108 1    
    82   41  109 1    
    83   42   43 2    
    84   42   44 am   BACKBONE|DICT|INTERRES
    85   44   45 1    
    86   44  110 1    
    87   45   46 1    
    88   45   47 1    
    89   45  111 1    
    90   46  112 1    
    91   46  113 1    
    92   46  114 1    
    93   47   48 2    
    94   47   49 am   BACKBONE|DICT|INTERRES
    95   49   50 1    
    96   49  115 1    
    97   50   51 1    
    98   50   52 1    
    99   50  116 1    
   100   51  117 1    
   101   51  118 1    
   102   51  119 1    
   103   52   53 2    
   104   52   54 am   BACKBONE|DICT|INTERRES
   105   54   55 1    
   106   54  120 1    
   107   55   56 1    
   108   55   57 1    
   109   55  121 1    
   110   56  122 1    
   111   56  123 1    
   112   56  124 1    
   113   57   58 2    
   114   57   59 am   BACKBONE|DICT|INTERRES
   115   59   60 1    
   116   59  125 1    
   117   60   61 1    
   118   60   62 1    
   119   60  126 1    
   120   61  127 1    
   121   61  128 1    
   122   61  129 1    
   123   62   63 2    
   124   62   64 am   BACKBONE|DICT|INTERRES
   125   64   65 1    
   126   64  130 1    
   127   65   66 1    
   128   65   69 1    
   129   65  131 1    
   130   66   67 am   BACKBONE|DICT|INTERRES
   131   66   68 2    
   132   67  132 1    
   133   67  133 1    
   134   69   70 1    
   135   69  134 1    
   136   69  135 1    
   137   70   71 1    
   138   71  136 1    
   139   71  137 1    
@<TRIPOS>SUBSTRUCTURE
     1 UNK         1 GROUP             0       ****    0 ROOT    
