@<TRIPOS>MOLECULE
3R137
137   139    1
SMALL
USER_CHARGES


@<TRIPOS>ATOM
      1 CA         26.3555   -5.6240   -7.1790 C.3       0 UNK        -0.2020 
      2 C          25.9252   -5.2569   -5.7675 C.2       0 UNK         0.4855 
      3 O          24.8025   -4.7921   -5.5669 O.2       0 UNK        -0.5197 
      4 N          26.8199   -5.4595   -4.7931 N.am      1 UNK        -0.4892 
      5 CA         26.6695   -5.1551   -3.3649 C.3       1 UNK         0.0835 
      6 C6         27.9033   -5.6199   -2.5345 C.3       12 UNK        -0.0855 
      7 S7         29.5189   -5.5110   -3.3972 S.3       12 UNK        -0.2931 
      8 C8         30.6633   -5.0818   -2.0499 C.3       12 UNK         0.0378 
      9 C9         30.9078   -3.5827   -1.9795 C.ar      12 UNK        -0.0802 
     10 C10        31.9886   -3.0146   -2.6595 C.ar      12 UNK        -0.0944 
     11 C11        32.2356   -1.6396   -2.5881 C.ar      12 UNK        -0.0787 
     12 C12        31.3815   -0.8286   -1.8297 C.ar      12 UNK        -0.0862 
     13 C13        30.3054   -1.3884   -1.1288 C.ar      12 UNK        -0.0733 
     14 C14        30.0761   -2.7659   -1.2119 C.ar      12 UNK        -0.0832 
     15 C15        29.4344   -0.5297   -0.2171 C.3       12 UNK         0.0240 
     16 S16        27.6534   -0.7349   -0.5536 S.3       12 UNK        -0.2522 
     17 C17        27.1956    0.8260   -1.3753 C.3       12 UNK        -0.0967 
     18 CA         28.0253    1.1903   -2.6316 C.3       5 UNK         0.0660 
     19 N          28.1371    0.0897   -3.6006 N.am      5 UNK        -0.4015 
     20 C          28.8737    0.1445   -4.7214 C.2       4 UNK         0.4946 
     21 O          29.5585    1.1155   -5.0372 O.2       4 UNK        -0.5353 
     22 CA         28.7536   -1.0244   -5.7089 C.3       4 UNK         0.0277 
     23 CB         29.6185   -2.2251   -5.2956 C.3       4 UNK        -0.1981 
     24 N          27.3557   -1.4299   -5.8491 N.am      4 UNK        -0.4209 
     25 C          26.4536   -0.7357   -6.5582 C.2       3 UNK         0.4942 
     26 O          26.7513    0.2277   -7.2630 O.2       3 UNK        -0.5208 
     27 CA         24.9771   -1.1552   -6.4579 C.3       3 UNK         0.0250 
     28 CB         24.5848   -2.0495   -7.6431 C.3       3 UNK        -0.1990 
     29 N          24.6578   -1.8220   -5.1925 N.am      3 UNK        -0.4232 
     30 C          24.6402   -1.1915   -4.0073 C.2       2 UNK         0.4993 
     31 O          24.8175    0.0197   -3.8828 O.2       2 UNK        -0.5286 
     32 CA         24.4627   -2.0518   -2.7430 C.3       2 UNK         0.0209 
     33 CB         22.9778   -2.1448   -2.3597 C.3       2 UNK        -0.1931 
     34 N          25.0237   -3.4016   -2.8644 N.am      2 UNK        -0.4546 
     35 C          26.3094   -3.6728   -3.1326 C.2       1 UNK         0.5154 
     36 O          27.1653   -2.7995   -3.2697 O.2       1 UNK        -0.5181 
     37 C          27.4696    2.4853   -3.2663 C.2       5 UNK         0.5014 
     38 O          27.9682    3.5714   -2.9683 O.2       5 UNK        -0.5248 
     39 N          26.4716    2.3420   -4.1503 N.am      6 UNK        -0.4434 
     40 CA         25.8883    3.4187   -4.9567 C.3       6 UNK         0.0363 
     41 CB         24.5312    2.9437   -5.5025 C.3       6 UNK        -0.1936 
     42 C          26.7859    3.9004   -6.1161 C.2       6 UNK         0.5081 
     43 O          26.4349    4.8892   -6.7606 O.2       6 UNK        -0.5248 
     44 N          27.8998    3.1998   -6.3778 N.am      7 UNK        -0.4718 
     45 CA         28.8716    3.4241   -7.4546 C.3       7 UNK         0.0273 
     46 CB         29.6108    4.7657   -7.2668 C.3       7 UNK        -0.1935 
     47 C          28.2842    3.2451   -8.8696 C.2       7 UNK         0.5018 
     48 O          28.7245    3.9117   -9.8085 O.2       7 UNK        -0.5186 
     49 N          27.3035    2.3429   -8.9983 N.am      8 UNK        -0.4240 
     50 CA         26.6971    1.9325  -10.2644 C.3       8 UNK         0.0235 
     51 CB         25.1963    1.6791  -10.0436 C.3       8 UNK        -0.2000 
     52 C          27.3784    0.6767  -10.8340 C.2       8 UNK         0.4941 
     53 O          27.4154    0.5217  -12.0558 O.2       8 UNK        -0.5273 
     54 N          27.8902   -0.1941   -9.9509 N.am      9 UNK        -0.4262 
     55 CA         28.6316   -1.4108  -10.2918 C.3       9 UNK         0.0264 
     56 CB         28.2764   -2.5240   -9.2838 C.3       9 UNK        -0.1955 
     57 C          30.1453   -1.1281  -10.4127 C.2       9 UNK         0.5031 
     58 O          30.5306   -0.0860  -10.9453 O.2       9 UNK        -0.5390 
     59 N          30.9817   -2.0780   -9.9680 N.am      10 UNK        -0.4204 
     60 CA         32.4410   -2.0568  -10.1207 C.3       10 UNK         0.0237 
     61 CB         33.0115   -3.4359   -9.7490 C.3       10 UNK        -0.1985 
     62 C          33.1533   -0.9498   -9.3232 C.2       10 UNK         0.4970 
     63 O          34.1175   -0.3745   -9.8307 O.2       10 UNK        -0.4914 
     64 N          32.6901   -0.6895   -8.0945 N.am      11 UNK        -0.4285 
     65 CA         33.2207    0.3656   -7.2161 C.3       11 UNK         0.1007 
     66 C          32.8345    1.7941   -7.6924 C.2       11 UNK         0.5703 
     67 N          33.5758    2.8080   -7.2654 N.am      11 UNK        -0.7361 
     68 O          31.8664    1.9986   -8.4203 O.2       11 UNK        -0.4986 
     69 C69        32.8156    0.1345   -5.7377 C.3       12 UNK        -0.0947 
     70 S70        33.5570   -1.3797   -5.0480 S.3       12 UNK        -0.2240 
     71 C71        33.4785   -1.0564   -3.2538 C.3       12 UNK         0.0194 
     72 H72        25.4968   -5.9491   -7.7662 H         1 UNK         0.0906 
     73 H73        26.8034   -4.7633   -7.6739 H         1 UNK         0.0906 
     74 H74        27.0848   -6.4340   -7.1748 H         1 UNK         0.0906 
     75 H75        27.7401   -5.8036   -5.0337 H         1 UNK         0.3140 
     76 H76        25.8185   -5.7436   -3.0154 H         1 UNK         0.1085 
     77 H77        27.7693   -6.6694   -2.2678 H         1 UNK         0.0836 
     78 H78        27.9531   -5.0911   -1.5809 H         1 UNK         0.0836 
     79 H79        31.6080   -5.6000   -2.2212 H         1 UNK         0.0731 
     80 H80        30.2872   -5.4561   -1.0965 H         1 UNK         0.0731 
     81 H81        32.6494   -3.6464   -3.2373 H         1 UNK         0.1312 
     82 H82        31.5783    0.2319   -1.7526 H         1 UNK         0.1406 
     83 H83        29.2493   -3.2033   -0.6698 H         1 UNK         0.1631 
     84 H84        29.7131    0.5230   -0.2729 H         1 UNK         0.0717 
     85 H85        29.6219   -0.8327    0.8138 H         1 UNK         0.0717 
     86 H86        26.1358    0.7542   -1.6263 H         1 UNK         0.0934 
     87 H87        27.2697    1.6247   -0.6345 H         1 UNK         0.0934 
     88 H88        29.0436    1.4183   -2.3128 H         1 UNK         0.0739 
     89 H89        27.6462   -0.7705   -3.3782 H         1 UNK         0.3093 
     90 H90        29.1144   -0.6741   -6.6782 H         1 UNK         0.0818 
     91 H91        29.4514   -2.5129   -4.2588 H         1 UNK         0.0819 
     92 H92        29.4243   -3.0980   -5.9183 H         1 UNK         0.0819 
     93 H93        30.6778   -1.9943   -5.3858 H         1 UNK         0.0819 
     94 H94        27.0411   -2.1633   -5.2244 H         1 UNK         0.3041 
     95 H95        24.3767   -0.2456   -6.5174 H         1 UNK         0.0784 
     96 H96        25.1512   -2.9789   -7.6555 H         1 UNK         0.0793 
     97 H97        23.5253   -2.3039   -7.6138 H         1 UNK         0.0793 
     98 H98        24.7705   -1.5442   -8.5919 H         1 UNK         0.0793 
     99 H99        24.5331   -2.8307   -5.2187 H         1 UNK         0.3024 
    100 H100       24.9957   -1.5476   -1.9343 H         1 UNK         0.1171 
    101 H101       22.8440   -2.6680   -1.4127 H         1 UNK         0.0786 
    102 H102       22.5428   -1.1510   -2.2428 H         1 UNK         0.0786 
    103 H103       22.3962   -2.6683   -3.1197 H         1 UNK         0.0786 
    104 H104       24.3658   -4.1671   -2.8238 H         1 UNK         0.2977 
    105 H105       26.0474    1.4222   -4.2520 H         1 UNK         0.3127 
    106 H106       25.7139    4.2763   -4.3037 H         1 UNK         0.0770 
    107 H107       24.6496    2.1120   -6.1972 H         1 UNK         0.0814 
    108 H108       24.0220    3.7452   -6.0393 H         1 UNK         0.0814 
    109 H109       23.8684    2.6203   -4.6996 H         1 UNK         0.0814 
    110 H110       28.1193    2.4130   -5.7764 H         1 UNK         0.2983 
    111 H111       29.6087    2.6292   -7.3429 H         1 UNK         0.0947 
    112 H112       30.4381    4.8546   -7.9720 H         1 UNK         0.0806 
    113 H113       30.0319    4.8479   -6.2649 H         1 UNK         0.0806 
    114 H114       28.9515    5.6189   -7.4282 H         1 UNK         0.0806 
    115 H115       27.0294    1.8066   -8.1777 H         1 UNK         0.3000 
    116 H116       26.8014    2.7326  -11.0005 H         1 UNK         0.0850 
    117 H117       24.7095    1.3849  -10.9743 H         1 UNK         0.0810 
    118 H118       24.6935    2.5768   -9.6835 H         1 UNK         0.0810 
    119 H119       25.0209    0.8847   -9.3176 H         1 UNK         0.0810 
    120 H120       27.7760    0.0117   -8.9647 H         1 UNK         0.3040 
    121 H121       28.3055   -1.7554  -11.2754 H         1 UNK         0.0766 
    122 H122       27.1962   -2.6311   -9.1873 H         1 UNK         0.0812 
    123 H123       28.6787   -2.3258   -8.2921 H         1 UNK         0.0812 
    124 H124       28.6552   -3.4933   -9.6100 H         1 UNK         0.0812 
    125 H125       30.5833   -2.9097   -9.5573 H         1 UNK         0.3205 
    126 H126       32.6549   -1.8797  -11.1771 H         1 UNK         0.0754 
    127 H127       32.8025   -3.6949   -8.7102 H         1 UNK         0.0769 
    128 H128       34.0948   -3.4573   -9.8776 H         1 UNK         0.0769 
    129 H129       32.5980   -4.2213  -10.3820 H         1 UNK         0.0769 
    130 H130       31.8882   -1.1957   -7.7556 H         1 UNK         0.2981 
    131 H131       34.3101    0.3098   -7.2704 H         1 UNK         0.0541 
    132 H132       34.3710    2.6582   -6.6645 H         1 UNK         0.3459 
    133 H133       33.3381    3.7424   -7.5578 H         1 UNK         0.3459 
    134 H134       33.1249    0.9792   -5.1200 H         1 UNK         0.0612 
    135 H135       31.7353    0.0660   -5.6458 H         1 UNK         0.0612 
    136 H136       33.5620    0.0140   -3.0619 H         1 UNK         0.0624 
    137 H137       34.3547   -1.5117   -2.7906 H         1 UNK         0.0624 
@<TRIPOS>BOND
     1    1    2 1    
     2    1   72 1    
     3    1   73 1    
     4    1   74 1    
     5    2    3 2    
     6    2    4 am   BACKBONE|DICT|INTERRES
     7    4    5 1    
     8    4   75 1    
     9    5    6 1    
    10    5   35 1    
    11    5   76 1    
    12    6    7 1    
    13    6   77 1    
    14    6   78 1    
    15    7    8 1    
    16    8    9 1    
    17    8   79 1    
    18    8   80 1    
    19    9   10 ar   
    20    9   14 ar   
    21   10   11 ar   
    22   10   81 1    
    23   11   12 ar   
    24   11   71 1    
    25   12   13 ar   
    26   12   82 1    
    27   13   14 ar   
    28   13   15 1    
    29   14   83 1    
    30   15   16 1    
    31   15   84 1    
    32   15   85 1    
    33   16   17 1    
    34   17   18 1    
    35   17   86 1    
    36   17   87 1    
    37   18   19 1    
    38   18   37 1    
    39   18   88 1    
    40   19   20 am   BACKBONE|DICT|INTERRES
    41   19   89 1    
    42   20   21 2    
    43   20   22 1    
    44   22   23 1    
    45   22   24 1    
    46   22   90 1    
    47   23   91 1    
    48   23   92 1    
    49   23   93 1    
    50   24   25 am   BACKBONE|DICT|INTERRES
    51   24   94 1    
    52   25   26 2    
    53   25   27 1    
    54   27   28 1    
    55   27   29 1    
    56   27   95 1    
    57   28   96 1    
    58   28   97 1    
    59   28   98 1    
    60   29   30 am   BACKBONE|DICT|INTERRES
    61   29   99 1    
    62   30   31 2    
    63   30   32 1    
    64   32   33 1    
    65   32   34 1    
    66   32  100 1    
    67   33  101 1    
    68   33  102 1    
    69   33  103 1    
    70   34   35 am   BACKBONE|DICT|INTERRES
    71   34  104 1    
    72   35   36 2    
    73   37   38 2    
    74   37   39 am   BACKBONE|DICT|INTERRES
    75   39   40 1    
    76   39  105 1    
    77   40   41 1    
    78   40   42 1    
    79   40  106 1    
    80   41  107 1    
    81   41  108 1    
    82   41  109 1    
    83   42   43 2    
    84   42   44 am   BACKBONE|DICT|INTERRES
    85   44   45 1    
    86   44  110 1    
    87   45   46 1    
    88   45   47 1    
    89   45  111 1    
    90   46  112 1    
    91   46  113 1    
    92   46  114 1    
    93   47   48 2    
    94   47   49 am   BACKBONE|DICT|INTERRES
    95   49   50 1    
    96   49  115 1    
    97   50   51 1    
    98   50   52 1    
    99   50  116 1    
   100   51  117 1    
   101   51  118 1    
   102   51  119 1    
   103   52   53 2    
   104   52   54 am   BACKBONE|DICT|INTERRES
   105   54   55 1    
   106   54  120 1    
   107   55   56 1    
   108   55   57 1    
   109   55  121 1    
   110   56  122 1    
   111   56  123 1    
   112   56  124 1    
   113   57   58 2    
   114   57   59 am   BACKBONE|DICT|INTERRES
   115   59   60 1    
   116   59  125 1    
   117   60   61 1    
   118   60   62 1    
   119   60  126 1    
   120   61  127 1    
   121   61  128 1    
   122   61  129 1    
   123   62   63 2    
   124   62   64 am   BACKBONE|DICT|INTERRES
   125   64   65 1    
   126   64  130 1    
   127   65   66 1    
   128   65   69 1    
   129   65  131 1    
   130   66   67 am   BACKBONE|DICT|INTERRES
   131   66   68 2    
   132   67  132 1    
   133   67  133 1    
   134   69   70 1    
   135   69  134 1    
   136   69  135 1    
   137   70   71 1    
   138   71  136 1    
   139   71  137 1    
@<TRIPOS>SUBSTRUCTURE
     1 UNK         1 GROUP             0       ****    0 ROOT    
