@<TRIPOS>MOLECULE
3R137
137   139    1
SMALL
USER_CHARGES


@<TRIPOS>ATOM
      1 CA         26.9644   -6.5469   -3.1205 C.3       0 UNK        -0.2020 
      2 C          26.8288   -5.8234   -1.7899 C.2       0 UNK         0.4855 
      3 O          25.9579   -6.1713   -0.9925 O.2       0 UNK        -0.5197 
      4 N          27.6875   -4.8254   -1.5407 N.am      1 UNK        -0.4892 
      5 CA         27.6900   -4.0127   -0.3171 C.3       1 UNK         0.0835 
      6 C6         28.9874   -3.1804   -0.1833 C.3       12 UNK        -0.0855 
      7 S7         30.4669   -4.1796    0.2148 S.3       12 UNK        -0.2931 
      8 C8         31.0245   -4.8732   -1.3843 C.3       12 UNK         0.0378 
      9 C9         31.0018   -3.8872   -2.5481 C.ar      12 UNK        -0.0802 
     10 C10        31.5456   -2.6051   -2.4198 C.ar      12 UNK        -0.0944 
     11 C11        31.4880   -1.6867   -3.4726 C.ar      12 UNK        -0.0787 
     12 C12        30.8889   -2.0799   -4.6790 C.ar      12 UNK        -0.0862 
     13 C13        30.3691   -3.3705   -4.8336 C.ar      12 UNK        -0.0733 
     14 C14        30.4382   -4.2698   -3.7674 C.ar      12 UNK        -0.0832 
     15 C15        29.7745   -3.8052   -6.1684 C.3       12 UNK         0.0240 
     16 S16        28.0976   -4.5188   -6.0431 S.3       12 UNK        -0.2522 
     17 C17        27.1017   -3.1405   -5.3851 C.3       12 UNK        -0.0967 
     18 CA         26.5695   -2.1931   -6.4950 C.3       5 UNK         0.0660 
     19 N          25.2777   -1.5965   -6.1533 N.am      5 UNK        -0.4015 
     20 C          24.4583   -1.0045   -7.0363 C.2       4 UNK         0.4946 
     21 O          24.6450   -1.0068   -8.2530 O.2       4 UNK        -0.5353 
     22 CA         23.2366   -0.2567   -6.4710 C.3       4 UNK         0.0277 
     23 CB         22.0170   -1.1899   -6.4067 C.3       4 UNK        -0.1981 
     24 N          23.4746    0.3257   -5.1476 N.am      4 UNK        -0.4209 
     25 C          24.3547    1.3049   -4.8914 C.2       3 UNK         0.4942 
     26 O          25.0178    1.8736   -5.7570 O.2       3 UNK        -0.5208 
     27 CA         24.5783    1.6704   -3.4137 C.3       3 UNK         0.0250 
     28 CB         23.6111    2.7845   -2.9838 C.3       3 UNK        -0.1990 
     29 N          24.4583    0.5315   -2.4951 N.am      3 UNK        -0.4232 
     30 C          25.1979   -0.5849   -2.5508 C.2       2 UNK         0.4993 
     31 O          26.0570   -0.8019   -3.4121 O.2       2 UNK        -0.5286 
     32 CA         24.8721   -1.6637   -1.5145 C.3       2 UNK         0.0209 
     33 CB         23.6383   -2.4754   -1.9475 C.3       2 UNK        -0.1931 
     34 N          26.0126   -2.5652   -1.3834 N.am      2 UNK        -0.4546 
     35 C          26.4551   -3.0904   -0.2344 C.2       1 UNK         0.5154 
     36 O          25.9302   -2.8789    0.8603 O.2       1 UNK        -0.5181 
     37 C          27.5795   -1.0777   -6.8037 C.2       5 UNK         0.5014 
     38 O          28.2092   -1.1003   -7.8612 O.2       5 UNK        -0.5248 
     39 N          27.6959   -0.1126   -5.8794 N.am      6 UNK        -0.4434 
     40 CA         28.6348    1.0063   -5.9586 C.3       6 UNK         0.0363 
     41 CB         28.5470    1.8548   -4.6817 C.3       6 UNK        -0.1936 
     42 C          28.4630    1.8741   -7.2127 C.2       6 UNK         0.5081 
     43 O          29.4584    2.1841   -7.8669 O.2       6 UNK        -0.5248 
     44 N          27.2105    2.2054   -7.5524 N.am      7 UNK        -0.4718 
     45 CA         26.8483    2.9647   -8.7514 C.3       7 UNK         0.0273 
     46 CB         25.3575    3.3329   -8.6870 C.3       7 UNK        -0.1935 
     47 C          27.1613    2.2293  -10.0662 C.2       7 UNK         0.5018 
     48 O          27.4781    2.8874  -11.0578 O.2       7 UNK        -0.5186 
     49 N          27.0678    0.8924  -10.0564 N.am      8 UNK        -0.4240 
     50 CA         27.3874    0.0403  -11.2009 C.3       8 UNK         0.0235 
     51 CB         26.6571   -1.3062  -11.0651 C.3       8 UNK        -0.2000 
     52 C          28.9013   -0.1694  -11.3518 C.2       8 UNK         0.4941 
     53 O          29.4212   -0.0405  -12.4609 O.2       8 UNK        -0.5273 
     54 N          29.5766   -0.5030  -10.2436 N.am      9 UNK        -0.4262 
     55 CA         31.0052   -0.8204  -10.2130 C.3       9 UNK         0.0264 
     56 CB         31.3214   -1.6156   -8.9365 C.3       9 UNK        -0.1955 
     57 C          31.9223    0.4077  -10.3069 C.2       9 UNK         0.5031 
     58 O          33.0361    0.2693  -10.8148 O.2       9 UNK        -0.5390 
     59 N          31.4671    1.5600   -9.7879 N.am      10 UNK        -0.4204 
     60 CA         32.2369    2.7944   -9.5798 C.3       10 UNK         0.0237 
     61 CB         32.6454    3.4372  -10.9230 C.3       10 UNK        -0.1985 
     62 C          33.4225    2.5596   -8.6217 C.2       10 UNK         0.4970 
     63 O          34.5537    2.9464   -8.9211 O.2       10 UNK        -0.4914 
     64 N          33.1326    1.8899   -7.4980 N.am      11 UNK        -0.4285 
     65 CA         34.1068    1.4537   -6.4845 C.3       11 UNK         0.1007 
     66 C          34.7712    2.5891   -5.6485 C.2       11 UNK         0.5703 
     67 N          34.2842    3.8237   -5.6939 N.am      11 UNK        -0.7361 
     68 O          35.7561    2.3439   -4.9557 O.2       11 UNK        -0.4986 
     69 C69        33.5173    0.3281   -5.5903 C.3       12 UNK        -0.0947 
     70 S70        32.0556    0.8654   -4.6386 S.3       12 UNK        -0.2240 
     71 C71        32.0649   -0.2888   -3.2249 C.3       12 UNK         0.0194 
     72 H72        26.1792   -6.2260   -3.8047 H         1 UNK         0.0906 
     73 H73        27.9275   -6.3563   -3.5910 H         1 UNK         0.0906 
     74 H74        26.8717   -7.6230   -2.9761 H         1 UNK         0.0906 
     75 H75        28.3875   -4.5817   -2.2257 H         1 UNK         0.3140 
     76 H76        27.6296   -4.6919    0.5366 H         1 UNK         0.1085 
     77 H77        29.1547   -2.5730   -1.0733 H         1 UNK         0.0836 
     78 H78        28.8892   -2.4644    0.6357 H         1 UNK         0.0836 
     79 H79        32.0426   -5.2456   -1.2642 H         1 UNK         0.0731 
     80 H80        30.4098   -5.7465   -1.6075 H         1 UNK         0.0731 
     81 H81        31.9957   -2.3120   -1.4808 H         1 UNK         0.1312 
     82 H82        30.8319   -1.3936   -5.5099 H         1 UNK         0.1406 
     83 H83        30.0533   -5.2721   -3.8959 H         1 UNK         0.1631 
     84 H84        29.7510   -2.9734   -6.8687 H         1 UNK         0.0717 
     85 H85        30.4340   -4.5517   -6.6126 H         1 UNK         0.0717 
     86 H86        26.2610   -3.6029   -4.8655 H         1 UNK         0.0934 
     87 H87        27.6598   -2.6117   -4.6100 H         1 UNK         0.0934 
     88 H88        26.4235   -2.7735   -7.4091 H         1 UNK         0.0739 
     89 H89        25.0938   -1.4792   -5.1654 H         1 UNK         0.3093 
     90 H90        23.0081    0.5609   -7.1584 H         1 UNK         0.0818 
     91 H91        21.1222   -0.6532   -6.0907 H         1 UNK         0.0819 
     92 H92        21.8044   -1.6203   -7.3865 H         1 UNK         0.0819 
     93 H93        22.1754   -2.0181   -5.7148 H         1 UNK         0.0819 
     94 H94        22.9625   -0.0710   -4.3735 H         1 UNK         0.3041 
     95 H95        25.5964    2.0522   -3.3229 H         1 UNK         0.0784 
     96 H96        23.6987    3.6513   -3.6407 H         1 UNK         0.0793 
     97 H97        22.5719    2.4548   -3.0165 H         1 UNK         0.0793 
     98 H98        23.8241    3.1269   -1.9709 H         1 UNK         0.0793 
     99 H99        23.7657    0.6184   -1.7647 H         1 UNK         0.3024 
    100 H100       24.6725   -1.1699   -0.5603 H         1 UNK         0.1171 
    101 H101       23.4004   -3.2488   -1.2167 H         1 UNK         0.0786 
    102 H102       22.7568   -1.8400   -2.0409 H         1 UNK         0.0786 
    103 H103       23.7944   -2.9657   -2.9094 H         1 UNK         0.0786 
    104 H104       26.5370   -2.7187   -2.2336 H         1 UNK         0.2977 
    105 H105       27.1358   -0.1829   -5.0354 H         1 UNK         0.3127 
    106 H106       29.6301    0.5691   -6.0156 H         1 UNK         0.0770 
    107 H107       27.5737    2.3342   -4.5825 H         1 UNK         0.0814 
    108 H108       29.2993    2.6446   -4.6899 H         1 UNK         0.0814 
    109 H109       28.7215    1.2513   -3.7906 H         1 UNK         0.0814 
    110 H110       26.4477    1.9433   -6.9294 H         1 UNK         0.2983 
    111 H111       27.4313    3.8883   -8.7482 H         1 UNK         0.0947 
    112 H112       25.0586    3.9153   -9.5597 H         1 UNK         0.0806 
    113 H113       25.1359    3.9337   -7.8047 H         1 UNK         0.0806 
    114 H114       24.7254    2.4444   -8.6523 H         1 UNK         0.0806 
    115 H115       26.8218    0.4277   -9.1923 H         1 UNK         0.3000 
    116 H116       27.0252    0.5252  -12.1104 H         1 UNK         0.0850 
    117 H117       26.8727   -1.9549  -11.9151 H         1 UNK         0.0810 
    118 H118       25.5764   -1.1669  -11.0287 H         1 UNK         0.0810 
    119 H119       26.9516   -1.8419  -10.1619 H         1 UNK         0.0810 
    120 H120       29.0603   -0.6274   -9.3724 H         1 UNK         0.3040 
    121 H121       31.2301   -1.4596  -11.0697 H         1 UNK         0.0766 
    122 H122       30.7799   -2.5610   -8.9248 H         1 UNK         0.0812 
    123 H123       31.0548   -1.0585   -8.0375 H         1 UNK         0.0812 
    124 H124       32.3844   -1.8524   -8.8720 H         1 UNK         0.0812 
    125 H125       30.5510    1.5597   -9.3451 H         1 UNK         0.3205 
    126 H126       31.5681    3.4926   -9.0744 H         1 UNK         0.0754 
    127 H127       33.1094    4.4111  -10.7623 H         1 UNK         0.0769 
    128 H128       31.7789    3.5928  -11.5658 H         1 UNK         0.0769 
    129 H129       33.3623    2.8239  -11.4694 H         1 UNK         0.0769 
    130 H130       32.1708    1.6442   -7.3146 H         1 UNK         0.2981 
    131 H131       34.9309    1.0016   -7.0395 H         1 UNK         0.0541 
    132 H132       33.4763    4.0323   -6.2572 H         1 UNK         0.3459 
    133 H133       34.7264    4.5497   -5.1530 H         1 UNK         0.3459 
    134 H134       34.2782   -0.0497   -4.9052 H         1 UNK         0.0612 
    135 H135       33.2263   -0.5227   -6.2083 H         1 UNK         0.0612 
    136 H136       31.4842    0.1743   -2.4260 H         1 UNK         0.0624 
    137 H137       33.0845   -0.3774   -2.8473 H         1 UNK         0.0624 
@<TRIPOS>BOND
     1    1    2 1    
     2    1   72 1    
     3    1   73 1    
     4    1   74 1    
     5    2    3 2    
     6    2    4 am   BACKBONE|DICT|INTERRES
     7    4    5 1    
     8    4   75 1    
     9    5    6 1    
    10    5   35 1    
    11    5   76 1    
    12    6    7 1    
    13    6   77 1    
    14    6   78 1    
    15    7    8 1    
    16    8    9 1    
    17    8   79 1    
    18    8   80 1    
    19    9   10 ar   
    20    9   14 ar   
    21   10   11 ar   
    22   10   81 1    
    23   11   12 ar   
    24   11   71 1    
    25   12   13 ar   
    26   12   82 1    
    27   13   14 ar   
    28   13   15 1    
    29   14   83 1    
    30   15   16 1    
    31   15   84 1    
    32   15   85 1    
    33   16   17 1    
    34   17   18 1    
    35   17   86 1    
    36   17   87 1    
    37   18   19 1    
    38   18   37 1    
    39   18   88 1    
    40   19   20 am   BACKBONE|DICT|INTERRES
    41   19   89 1    
    42   20   21 2    
    43   20   22 1    
    44   22   23 1    
    45   22   24 1    
    46   22   90 1    
    47   23   91 1    
    48   23   92 1    
    49   23   93 1    
    50   24   25 am   BACKBONE|DICT|INTERRES
    51   24   94 1    
    52   25   26 2    
    53   25   27 1    
    54   27   28 1    
    55   27   29 1    
    56   27   95 1    
    57   28   96 1    
    58   28   97 1    
    59   28   98 1    
    60   29   30 am   BACKBONE|DICT|INTERRES
    61   29   99 1    
    62   30   31 2    
    63   30   32 1    
    64   32   33 1    
    65   32   34 1    
    66   32  100 1    
    67   33  101 1    
    68   33  102 1    
    69   33  103 1    
    70   34   35 am   BACKBONE|DICT|INTERRES
    71   34  104 1    
    72   35   36 2    
    73   37   38 2    
    74   37   39 am   BACKBONE|DICT|INTERRES
    75   39   40 1    
    76   39  105 1    
    77   40   41 1    
    78   40   42 1    
    79   40  106 1    
    80   41  107 1    
    81   41  108 1    
    82   41  109 1    
    83   42   43 2    
    84   42   44 am   BACKBONE|DICT|INTERRES
    85   44   45 1    
    86   44  110 1    
    87   45   46 1    
    88   45   47 1    
    89   45  111 1    
    90   46  112 1    
    91   46  113 1    
    92   46  114 1    
    93   47   48 2    
    94   47   49 am   BACKBONE|DICT|INTERRES
    95   49   50 1    
    96   49  115 1    
    97   50   51 1    
    98   50   52 1    
    99   50  116 1    
   100   51  117 1    
   101   51  118 1    
   102   51  119 1    
   103   52   53 2    
   104   52   54 am   BACKBONE|DICT|INTERRES
   105   54   55 1    
   106   54  120 1    
   107   55   56 1    
   108   55   57 1    
   109   55  121 1    
   110   56  122 1    
   111   56  123 1    
   112   56  124 1    
   113   57   58 2    
   114   57   59 am   BACKBONE|DICT|INTERRES
   115   59   60 1    
   116   59  125 1    
   117   60   61 1    
   118   60   62 1    
   119   60  126 1    
   120   61  127 1    
   121   61  128 1    
   122   61  129 1    
   123   62   63 2    
   124   62   64 am   BACKBONE|DICT|INTERRES
   125   64   65 1    
   126   64  130 1    
   127   65   66 1    
   128   65   69 1    
   129   65  131 1    
   130   66   67 am   BACKBONE|DICT|INTERRES
   131   66   68 2    
   132   67  132 1    
   133   67  133 1    
   134   69   70 1    
   135   69  134 1    
   136   69  135 1    
   137   70   71 1    
   138   71  136 1    
   139   71  137 1    
@<TRIPOS>SUBSTRUCTURE
     1 UNK         1 GROUP             0       ****    0 ROOT    
