@<TRIPOS>MOLECULE
3R137
137   139    1
SMALL
USER_CHARGES


@<TRIPOS>ATOM
      1 CA         30.2546   -1.9762    3.1548 C.3       0 UNK        -0.2020 
      2 C          30.0958   -1.6662    1.6738 C.2       0 UNK         0.4855 
      3 O          30.9445   -0.9872    1.0952 O.2       0 UNK        -0.5197 
      4 N          29.0151   -2.1528    1.0587 N.am      1 UNK        -0.4892 
      5 CA         28.6789   -1.9648   -0.3516 C.3       1 UNK         0.0835 
      6 C6         29.5316   -2.8492   -1.3035 C.3       12 UNK        -0.0855 
      7 S7         29.4486   -4.6440   -0.9578 S.3       12 UNK        -0.2931 
      8 C8         30.9770   -5.2355   -1.7618 C.3       12 UNK         0.0378 
      9 C9         31.0416   -4.8632   -3.2387 C.ar      12 UNK        -0.0802 
     10 C10        32.1353   -4.1492   -3.7403 C.ar      12 UNK        -0.0944 
     11 C11        32.1799   -3.7739   -5.0867 C.ar      12 UNK        -0.0787 
     12 C12        31.1185   -4.1090   -5.9316 C.ar      12 UNK        -0.0862 
     13 C13        30.0163   -4.8140   -5.4396 C.ar      12 UNK        -0.0733 
     14 C14        29.9969   -5.2120   -4.1004 C.ar      12 UNK        -0.0832 
     15 C15        28.8225   -5.0986   -6.3408 C.3       12 UNK         0.0240 
     16 S16        27.3090   -4.2696   -5.7473 S.3       12 UNK        -0.2522 
     17 C17        27.8135   -2.5146   -5.7189 C.3       12 UNK        -0.0967 
     18 CA         27.1172   -1.6902   -6.8223 C.3       5 UNK         0.0660 
     19 N          25.6616   -1.6630   -6.6663 N.am      5 UNK        -0.4015 
     20 C          24.8014   -1.2097   -7.5874 C.2       4 UNK         0.4946 
     21 O          25.1391   -0.7783   -8.6888 O.2       4 UNK        -0.5353 
     22 CA         23.3172   -1.1903   -7.1909 C.3       4 UNK         0.0277 
     23 CB         22.6982   -2.5907   -7.3256 C.3       4 UNK        -0.1981 
     24 N          23.1158   -0.6847   -5.8308 N.am      4 UNK        -0.4209 
     25 C          23.3767    0.5746   -5.4501 C.2       3 UNK         0.4942 
     26 O          23.7531    1.4591   -6.2190 O.2       3 UNK        -0.5208 
     27 CA         23.2321    0.8890   -3.9510 C.3       3 UNK         0.0250 
     28 CB         21.7805    1.2679   -3.6167 C.3       3 UNK        -0.1990 
     29 N          23.6744   -0.1990   -3.0688 N.am      3 UNK        -0.4232 
     30 C          24.9231   -0.6833   -3.0251 C.2       2 UNK         0.4993 
     31 O          25.8323   -0.3107   -3.7714 O.2       2 UNK        -0.5286 
     32 CA         25.2039   -1.7915   -2.0072 C.3       2 UNK         0.0209 
     33 CB         24.8466   -3.1722   -2.5871 C.3       2 UNK        -0.1931 
     34 N          26.6240   -1.7450   -1.6682 N.am      2 UNK        -0.4546 
     35 C          27.1627   -2.1762   -0.5233 C.2       1 UNK         0.5154 
     36 O          26.5102   -2.7091    0.3810 O.2       1 UNK        -0.5181 
     37 C          27.7041   -0.2697   -6.8886 C.2       5 UNK         0.5014 
     38 O          28.5612   -0.0152   -7.7346 O.2       5 UNK        -0.5248 
     39 N          27.2109    0.6387   -6.0350 N.am      6 UNK        -0.4434 
     40 CA         27.5757    2.0576   -6.0223 C.3       6 UNK         0.0363 
     41 CB         26.8892    2.7558   -4.8385 C.3       6 UNK        -0.1936 
     42 C          27.2524    2.7828   -7.3421 C.2       6 UNK         0.5081 
     43 O          27.9953    3.6836   -7.7305 O.2       6 UNK        -0.5248 
     44 N          26.1700    2.3699   -8.0140 N.am      7 UNK        -0.4718 
     45 CA         25.7971    2.8501   -9.3423 C.3       7 UNK         0.0273 
     46 CB         24.2905    2.6330   -9.5621 C.3       7 UNK        -0.1935 
     47 C          26.6201    2.1789  -10.4555 C.2       7 UNK         0.5018 
     48 O          27.1597    2.8823  -11.3103 O.2       7 UNK        -0.5186 
     49 N          26.6693    0.8389  -10.4522 N.am      8 UNK        -0.4240 
     50 CA         27.2389    0.0354  -11.5368 C.3       8 UNK         0.0235 
     51 CB         26.6723   -1.3929  -11.4702 C.3       8 UNK        -0.2000 
     52 C          28.7745   -0.0014  -11.5559 C.2       8 UNK         0.4941 
     53 O          29.3628    0.1611  -12.6262 O.2       8 UNK        -0.5273 
     54 N          29.3910   -0.2552  -10.3956 N.am      9 UNK        -0.4262 
     55 CA         30.8349   -0.4554  -10.2467 C.3       9 UNK         0.0264 
     56 CB         31.0876   -1.7151   -9.3982 C.3       9 UNK        -0.1955 
     57 C          31.5201    0.7539   -9.5999 C.2       9 UNK         0.5031 
     58 O          32.6597    1.0567   -9.9589 O.2       9 UNK        -0.5390 
     59 N          30.8356    1.4001   -8.6446 N.am      10 UNK        -0.4204 
     60 CA         31.2946    2.4890   -7.7727 C.3       10 UNK         0.0237 
     61 CB         31.7310    3.7381   -8.5656 C.3       10 UNK        -0.1985 
     62 C          32.3612    2.0269   -6.7669 C.2       10 UNK         0.4970 
     63 O          32.1007    2.0719   -5.5650 O.2       10 UNK        -0.4914 
     64 N          33.5111    1.5774   -7.2887 N.am      11 UNK        -0.4285 
     65 CA         34.6520    0.9395   -6.6055 C.3       11 UNK         0.1007 
     66 C          35.2114    1.6372   -5.3264 C.2       11 UNK         0.5703 
     67 N          35.0403    2.9441   -5.1683 N.am      11 UNK        -0.7361 
     68 O          35.8517    1.0046   -4.4894 O.2       11 UNK        -0.4986 
     69 C69        34.5003   -0.6073   -6.4999 C.3       12 UNK        -0.0947 
     70 S70        33.0862   -1.2041   -5.5162 S.3       12 UNK        -0.2240 
     71 C71        33.3659   -2.9959   -5.6326 C.3       12 UNK         0.0194 
     72 H72        31.1850   -2.5168    3.3268 H         1 UNK         0.0906 
     73 H73        30.2856   -1.0519    3.7310 H         1 UNK         0.0906 
     74 H74        29.4342   -2.5854    3.5340 H         1 UNK         0.0906 
     75 H75        28.3103   -2.6742    1.5676 H         1 UNK         0.3140 
     76 H76        28.8697   -0.9176   -0.5981 H         1 UNK         0.1085 
     77 H77        29.2430   -2.6840   -2.3433 H         1 UNK         0.0836 
     78 H78        30.5751   -2.5364   -1.2411 H         1 UNK         0.0836 
     79 H79        31.8354   -4.8337   -1.2209 H         1 UNK         0.0731 
     80 H80        31.0315   -6.3206   -1.6660 H         1 UNK         0.0731 
     81 H81        32.9484   -3.8734   -3.0825 H         1 UNK         0.1312 
     82 H82        31.1418   -3.7973   -6.9669 H         1 UNK         0.1406 
     83 H83        29.1408   -5.7498   -3.7153 H         1 UNK         0.1631 
     84 H84        28.6481   -6.1746   -6.3780 H         1 UNK         0.0717 
     85 H85        29.0204   -4.7806   -7.3657 H         1 UNK         0.0717 
     86 H86        27.5851   -2.1138   -4.7302 H         1 UNK         0.0934 
     87 H87        28.8961   -2.4368   -5.8226 H         1 UNK         0.0934 
     88 H88        27.3326   -2.1654   -7.7821 H         1 UNK         0.0739 
     89 H89        25.3038   -1.9739   -5.7764 H         1 UNK         0.3093 
     90 H90        22.7996   -0.5196   -7.8805 H         1 UNK         0.0818 
     91 H91        21.6269   -2.5714   -7.1246 H         1 UNK         0.0819 
     92 H92        22.8287   -2.9770   -8.3376 H         1 UNK         0.0819 
     93 H93        23.1556   -3.3075   -6.6423 H         1 UNK         0.0819 
     94 H94        22.7949   -1.3414   -5.1346 H         1 UNK         0.3041 
     95 H95        23.8635    1.7547   -3.7404 H         1 UNK         0.0784 
     96 H96        21.4368    2.0888   -4.2481 H         1 UNK         0.0793 
     97 H97        21.0970    0.4316   -3.7690 H         1 UNK         0.0793 
     98 H98        21.6841    1.5971   -2.5819 H         1 UNK         0.0793 
     99 H99        22.9843   -0.5694   -2.4305 H         1 UNK         0.3024 
    100 H100       24.6104   -1.6007   -1.1098 H         1 UNK         0.1171 
    101 H101       23.7920   -3.2263   -2.8596 H         1 UNK         0.0786 
    102 H102       25.0329   -3.9658   -1.8632 H         1 UNK         0.0786 
    103 H103       25.4295   -3.3966   -3.4808 H         1 UNK         0.0786 
    104 H104       27.1912   -1.2619   -2.3540 H         1 UNK         0.2977 
    105 H105       26.5549    0.3304   -5.3184 H         1 UNK         0.3127 
    106 H106       28.6539    2.1114   -5.8649 H         1 UNK         0.0770 
    107 H107       25.8040    2.7427   -4.9385 H         1 UNK         0.0814 
    108 H108       27.1973    3.7999   -4.7710 H         1 UNK         0.0814 
    109 H109       27.1449    2.2792   -3.8920 H         1 UNK         0.0814 
    110 H110       25.5815    1.6583   -7.5977 H         1 UNK         0.2983 
    111 H111       25.9880    3.9247   -9.3914 H         1 UNK         0.0947 
    112 H112       23.9827    2.9957  -10.5437 H         1 UNK         0.0806 
    113 H113       23.7024    3.1706   -8.8179 H         1 UNK         0.0806 
    114 H114       24.0160    1.5794   -9.5017 H         1 UNK         0.0806 
    115 H115       26.1710    0.3293   -9.7236 H         1 UNK         0.3000 
    116 H116       26.9127    0.4732  -12.4832 H         1 UNK         0.0850 
    117 H117       27.0560   -2.0055  -12.2872 H         1 UNK         0.0810 
    118 H118       25.5850   -1.3912  -11.5490 H         1 UNK         0.0810 
    119 H119       26.9367   -1.8903  -10.5361 H         1 UNK         0.0810 
    120 H120       28.8398   -0.3063   -9.5423 H         1 UNK         0.3040 
    121 H121       31.2981   -0.6128  -11.2232 H         1 UNK         0.0766 
    122 H122       32.1567   -1.9010   -9.2851 H         1 UNK         0.0812 
    123 H123       30.6521   -2.5995   -9.8633 H         1 UNK         0.0812 
    124 H124       30.6682   -1.6230   -8.3956 H         1 UNK         0.0812 
    125 H125       29.9373    0.9986   -8.3798 H         1 UNK         0.3205 
    126 H126       30.4256    2.7801   -7.1851 H         1 UNK         0.0754 
    127 H127       31.9785    4.5572   -7.8893 H         1 UNK         0.0769 
    128 H128       30.9280    4.0876   -9.2148 H         1 UNK         0.0769 
    129 H129       32.6079    3.5567   -9.1869 H         1 UNK         0.0769 
    130 H130       33.5539    1.5588   -8.3034 H         1 UNK         0.2981 
    131 H131       35.4693    1.0860   -7.3124 H         1 UNK         0.0541 
    132 H132       34.5135    3.4743   -5.8434 H         1 UNK         0.3459 
    133 H133       35.4148    3.3958   -4.3492 H         1 UNK         0.3459 
    134 H134       35.4135   -1.0543   -6.1031 H         1 UNK         0.0612 
    135 H135       34.3907   -1.0181   -7.5049 H         1 UNK         0.0612 
    136 H136       33.5396   -3.2698   -6.6745 H         1 UNK         0.0624 
    137 H137       34.2746   -3.2558   -5.0875 H         1 UNK         0.0624 
@<TRIPOS>BOND
     1    1    2 1    
     2    1   72 1    
     3    1   73 1    
     4    1   74 1    
     5    2    3 2    
     6    2    4 am   BACKBONE|DICT|INTERRES
     7    4    5 1    
     8    4   75 1    
     9    5    6 1    
    10    5   35 1    
    11    5   76 1    
    12    6    7 1    
    13    6   77 1    
    14    6   78 1    
    15    7    8 1    
    16    8    9 1    
    17    8   79 1    
    18    8   80 1    
    19    9   10 ar   
    20    9   14 ar   
    21   10   11 ar   
    22   10   81 1    
    23   11   12 ar   
    24   11   71 1    
    25   12   13 ar   
    26   12   82 1    
    27   13   14 ar   
    28   13   15 1    
    29   14   83 1    
    30   15   16 1    
    31   15   84 1    
    32   15   85 1    
    33   16   17 1    
    34   17   18 1    
    35   17   86 1    
    36   17   87 1    
    37   18   19 1    
    38   18   37 1    
    39   18   88 1    
    40   19   20 am   BACKBONE|DICT|INTERRES
    41   19   89 1    
    42   20   21 2    
    43   20   22 1    
    44   22   23 1    
    45   22   24 1    
    46   22   90 1    
    47   23   91 1    
    48   23   92 1    
    49   23   93 1    
    50   24   25 am   BACKBONE|DICT|INTERRES
    51   24   94 1    
    52   25   26 2    
    53   25   27 1    
    54   27   28 1    
    55   27   29 1    
    56   27   95 1    
    57   28   96 1    
    58   28   97 1    
    59   28   98 1    
    60   29   30 am   BACKBONE|DICT|INTERRES
    61   29   99 1    
    62   30   31 2    
    63   30   32 1    
    64   32   33 1    
    65   32   34 1    
    66   32  100 1    
    67   33  101 1    
    68   33  102 1    
    69   33  103 1    
    70   34   35 am   BACKBONE|DICT|INTERRES
    71   34  104 1    
    72   35   36 2    
    73   37   38 2    
    74   37   39 am   BACKBONE|DICT|INTERRES
    75   39   40 1    
    76   39  105 1    
    77   40   41 1    
    78   40   42 1    
    79   40  106 1    
    80   41  107 1    
    81   41  108 1    
    82   41  109 1    
    83   42   43 2    
    84   42   44 am   BACKBONE|DICT|INTERRES
    85   44   45 1    
    86   44  110 1    
    87   45   46 1    
    88   45   47 1    
    89   45  111 1    
    90   46  112 1    
    91   46  113 1    
    92   46  114 1    
    93   47   48 2    
    94   47   49 am   BACKBONE|DICT|INTERRES
    95   49   50 1    
    96   49  115 1    
    97   50   51 1    
    98   50   52 1    
    99   50  116 1    
   100   51  117 1    
   101   51  118 1    
   102   51  119 1    
   103   52   53 2    
   104   52   54 am   BACKBONE|DICT|INTERRES
   105   54   55 1    
   106   54  120 1    
   107   55   56 1    
   108   55   57 1    
   109   55  121 1    
   110   56  122 1    
   111   56  123 1    
   112   56  124 1    
   113   57   58 2    
   114   57   59 am   BACKBONE|DICT|INTERRES
   115   59   60 1    
   116   59  125 1    
   117   60   61 1    
   118   60   62 1    
   119   60  126 1    
   120   61  127 1    
   121   61  128 1    
   122   61  129 1    
   123   62   63 2    
   124   62   64 am   BACKBONE|DICT|INTERRES
   125   64   65 1    
   126   64  130 1    
   127   65   66 1    
   128   65   69 1    
   129   65  131 1    
   130   66   67 am   BACKBONE|DICT|INTERRES
   131   66   68 2    
   132   67  132 1    
   133   67  133 1    
   134   69   70 1    
   135   69  134 1    
   136   69  135 1    
   137   70   71 1    
   138   71  136 1    
   139   71  137 1    
@<TRIPOS>SUBSTRUCTURE
     1 UNK         1 GROUP             0       ****    0 ROOT    
