@<TRIPOS>MOLECULE
3R137
137   139    1
SMALL
USER_CHARGES


@<TRIPOS>ATOM
      1 CA         23.7602   -1.6509   -7.0281 C.3       0 UNK        -0.2020 
      2 C          24.7509   -2.2861   -6.0662 C.2       0 UNK         0.4855 
      3 O          24.9918   -1.7390   -4.9904 O.2       0 UNK        -0.5197 
      4 N          25.3104   -3.4487   -6.4284 N.am      1 UNK        -0.4892 
      5 CA         26.3504   -4.1840   -5.6867 C.3       1 UNK         0.0835 
      6 C6         27.7066   -3.4191   -5.6621 C.3       12 UNK        -0.0855 
      7 S7         29.1074   -4.4349   -6.2465 S.3       12 UNK        -0.2931 
      8 C8         29.9462   -4.8887   -4.6928 C.3       12 UNK         0.0378 
      9 C9         30.4476   -3.6697   -3.9319 C.ar      12 UNK        -0.0802 
     10 C10        31.5272   -2.9290   -4.4223 C.ar      12 UNK        -0.0944 
     11 C11        31.9740   -1.7929   -3.7418 C.ar      12 UNK        -0.0787 
     12 C12        31.3461   -1.4132   -2.5530 C.ar      12 UNK        -0.0862 
     13 C13        30.2513   -2.1321   -2.0650 C.ar      12 UNK        -0.0733 
     14 C14        29.8170   -3.2701   -2.7490 C.ar      12 UNK        -0.0832 
     15 C15        29.5190   -1.6571   -0.8179 C.3       12 UNK         0.0240 
     16 S16        27.9079   -0.8943   -1.2111 S.3       12 UNK        -0.2522 
     17 C17        28.3706    0.4331   -2.3774 C.3       12 UNK        -0.0967 
     18 CA         27.7248    0.2027   -3.7737 C.3       5 UNK         0.0660 
     19 N          26.2800    0.4619   -3.8109 N.am      5 UNK        -0.4015 
     20 C          25.6562    1.6168   -3.5355 C.2       4 UNK         0.4946 
     21 O          26.2419    2.6534   -3.2166 O.2       4 UNK        -0.5353 
     22 CA         24.1219    1.6507   -3.6487 C.3       4 UNK         0.0277 
     23 CB         23.7008    2.2305   -5.0082 C.3       4 UNK        -0.1981 
     24 N          23.4538    0.3612   -3.4558 N.am      4 UNK        -0.4209 
     25 C          23.4095   -0.3323   -2.3104 C.2       3 UNK         0.4942 
     26 O          23.9938    0.0008   -1.2794 O.2       3 UNK        -0.5208 
     27 CA         22.5333   -1.5916   -2.3033 C.3       3 UNK         0.0250 
     28 CB         21.2749   -1.4738   -3.1901 C.3       3 UNK        -0.1990 
     29 N          23.3143   -2.7602   -2.7055 N.am      3 UNK        -0.4232 
     30 C          23.1413   -3.9908   -2.2000 C.2       2 UNK         0.4993 
     31 O          22.3443   -4.2401   -1.2933 O.2       2 UNK        -0.5286 
     32 CA         23.9554   -5.1510   -2.8056 C.3       2 UNK         0.0209 
     33 CB         23.0752   -6.3939   -3.0387 C.3       2 UNK        -0.1931 
     34 N          24.5830   -4.7825   -4.0767 N.am      2 UNK        -0.4546 
     35 C          25.9007   -4.6608   -4.2808 C.2       1 UNK         0.5154 
     36 O          26.7391   -4.9079   -3.4129 O.2       1 UNK        -0.5181 
     37 C          28.4594    0.9468   -4.9050 C.2       5 UNK         0.5014 
     38 O          28.8096    0.3298   -5.9112 O.2       5 UNK        -0.5248 
     39 N          28.6372    2.2651   -4.7461 N.am      6 UNK        -0.4434 
     40 CA         29.3735    3.1551   -5.6524 C.3       6 UNK         0.0363 
     41 CB         29.5966    4.5038   -4.9489 C.3       6 UNK        -0.1936 
     42 C          28.7298    3.3574   -7.0397 C.2       6 UNK         0.5081 
     43 O          29.3332    4.0085   -7.8932 O.2       6 UNK        -0.5248 
     44 N          27.5277    2.8076   -7.2536 N.am      7 UNK        -0.4718 
     45 CA         26.8750    2.7299   -8.5605 C.3       7 UNK         0.0273 
     46 CB         25.3803    2.4366   -8.3598 C.3       7 UNK        -0.1935 
     47 C          27.5081    1.6712   -9.4840 C.2       7 UNK         0.5018 
     48 O          27.3668    1.7890  -10.7022 O.2       7 UNK        -0.5186 
     49 N          28.1712    0.6557   -8.9097 N.am      8 UNK        -0.4240 
     50 CA         28.8606   -0.3953   -9.6574 C.3       8 UNK         0.0235 
     51 CB         28.9234   -1.6692   -8.8021 C.3       8 UNK        -0.2000 
     52 C          30.2738    0.0554  -10.0454 C.2       8 UNK         0.4941 
     53 O          30.9307    0.7547   -9.2711 O.2       8 UNK        -0.5273 
     54 N          30.7495   -0.4140  -11.2071 N.am      9 UNK        -0.4262 
     55 CA         32.0574   -0.0882  -11.7968 C.3       9 UNK         0.0264 
     56 CB         32.1520   -0.7388  -13.1873 C.3       9 UNK        -0.1955 
     57 C          33.2857   -0.4647  -10.9419 C.2       9 UNK         0.5031 
     58 O          34.3848    0.0116  -11.2293 O.2       9 UNK        -0.5390 
     59 N          33.0833   -1.2940   -9.9096 N.am      10 UNK        -0.4204 
     60 CA         34.0741   -1.6595   -8.8985 C.3       10 UNK         0.0237 
     61 CB         33.4817   -2.7562   -7.9983 C.3       10 UNK        -0.1985 
     62 C          34.5610   -0.4742   -8.0426 C.2       10 UNK         0.4970 
     63 O          35.7052   -0.5126   -7.5875 O.2       10 UNK        -0.4914 
     64 N          33.7096    0.5394   -7.8307 N.am      11 UNK        -0.4285 
     65 CA         34.0259    1.7196   -7.0076 C.3       11 UNK         0.1007 
     66 C          33.1911    2.9929   -7.3231 C.2       11 UNK         0.5703 
     67 N          32.1827    2.9533   -8.1822 N.am      11 UNK        -0.7361 
     68 O          33.4831    4.0600   -6.7881 O.2       11 UNK        -0.4986 
     69 C69        34.0728    1.4023   -5.4848 C.3       12 UNK        -0.0947 
     70 S70        32.5267    0.6737   -4.8449 S.3       12 UNK        -0.2240 
     71 C71        33.1173   -0.9574   -4.2946 C.3       12 UNK         0.0194 
     72 H72        22.7750   -1.5885   -6.5675 H         1 UNK         0.0906 
     73 H73        24.0823   -0.6426   -7.2839 H         1 UNK         0.0906 
     74 H74        23.6674   -2.2201   -7.9528 H         1 UNK         0.0906 
     75 H75        25.0490   -3.8616   -7.3140 H         1 UNK         0.3140 
     76 H76        26.4857   -5.1071   -6.2527 H         1 UNK         0.1085 
     77 H77        27.9190   -3.0014   -4.6801 H         1 UNK         0.0836 
     78 H78        27.6682   -2.5457   -6.3127 H         1 UNK         0.0836 
     79 H79        29.2696   -5.4826   -4.0771 H         1 UNK         0.0731 
     80 H80        30.7916   -5.5374   -4.9261 H         1 UNK         0.0731 
     81 H81        32.0035   -3.2311   -5.3442 H         1 UNK         0.1312 
     82 H82        31.6880   -0.5294   -2.0314 H         1 UNK         0.1406 
     83 H83        28.9656   -3.8246   -2.3766 H         1 UNK         0.1631 
     84 H84        30.1257   -0.9400   -0.2626 H         1 UNK         0.0717 
     85 H85        29.3562   -2.5026   -0.1481 H         1 UNK         0.0717 
     86 H86        28.0719    1.3878   -1.9444 H         1 UNK         0.0934 
     87 H87        29.4559    0.4890   -2.4547 H         1 UNK         0.0934 
     88 H88        27.8362   -0.8548   -4.0100 H         1 UNK         0.0739 
     89 H89        25.7140   -0.3260   -4.1237 H         1 UNK         0.3093 
     90 H90        23.7634    2.3244   -2.8674 H         1 UNK         0.0818 
     91 H91        22.6255    2.4052   -5.0491 H         1 UNK         0.0819 
     92 H92        24.1888    3.1882   -5.1962 H         1 UNK         0.0819 
     93 H93        23.9628    1.5610   -5.8271 H         1 UNK         0.0819 
     94 H94        22.9599   -0.0119   -4.2524 H         1 UNK         0.3041 
     95 H95        22.1993   -1.7119   -1.2701 H         1 UNK         0.0784 
     96 H96        20.5925   -2.3041   -3.0070 H         1 UNK         0.0793 
     97 H97        20.7248   -0.5563   -2.9755 H         1 UNK         0.0793 
     98 H98        21.5158   -1.4789   -4.2534 H         1 UNK         0.0793 
     99 H99        24.0258   -2.6015   -3.4129 H         1 UNK         0.3024 
    100 H100       24.7142   -5.4098   -2.0636 H         1 UNK         0.1171 
    101 H101       22.2543   -6.1837   -3.7254 H         1 UNK         0.0786 
    102 H102       22.6378   -6.7499   -2.1050 H         1 UNK         0.0786 
    103 H103       23.6565   -7.2179   -3.4531 H         1 UNK         0.0786 
    104 H104       23.9618   -4.5529   -4.8400 H         1 UNK         0.2977 
    105 H105       28.1761    2.6990   -3.9529 H         1 UNK         0.3127 
    106 H106       30.3501    2.7004   -5.8302 H         1 UNK         0.0770 
    107 H107       28.6526    5.0051   -4.7319 H         1 UNK         0.0814 
    108 H108       30.1898    5.1762   -5.5704 H         1 UNK         0.0814 
    109 H109       30.1363    4.3770   -4.0103 H         1 UNK         0.0814 
    110 H110       27.1022    2.2979   -6.4941 H         1 UNK         0.2983 
    111 H111       26.9717    3.6989   -9.0556 H         1 UNK         0.0947 
    112 H112       24.8560    2.4157   -9.3163 H         1 UNK         0.0806 
    113 H113       24.9027    3.2019   -7.7479 H         1 UNK         0.0806 
    114 H114       25.2227    1.4695   -7.8825 H         1 UNK         0.0806 
    115 H115       28.3176    0.6612   -7.9050 H         1 UNK         0.3000 
    116 H116       28.2968   -0.6195  -10.5658 H         1 UNK         0.0850 
    117 H117       29.4521   -1.5015   -7.8622 H         1 UNK         0.0810 
    118 H118       27.9224   -2.0299   -8.5672 H         1 UNK         0.0810 
    119 H119       29.4385   -2.4753   -9.3260 H         1 UNK         0.0810 
    120 H120       30.1509   -1.0080  -11.7638 H         1 UNK         0.3040 
    121 H121       32.0894    0.9958  -11.9254 H         1 UNK         0.0766 
    122 H122       31.3523   -0.3948  -13.8436 H         1 UNK         0.0812 
    123 H123       32.0961   -1.8265  -13.1282 H         1 UNK         0.0812 
    124 H124       33.0954   -0.4878  -13.6746 H         1 UNK         0.0812 
    125 H125       32.1431   -1.6289   -9.7627 H         1 UNK         0.3205 
    126 H126       34.9435   -2.0691   -9.4170 H         1 UNK         0.0754 
    127 H127       34.1918   -3.0573   -7.2267 H         1 UNK         0.0769 
    128 H128       33.2306   -3.6491   -8.5713 H         1 UNK         0.0769 
    129 H129       32.5761   -2.4139   -7.4956 H         1 UNK         0.0769 
    130 H130       32.7826    0.5113   -8.2379 H         1 UNK         0.2981 
    131 H131       35.0367    2.0182   -7.2920 H         1 UNK         0.0541 
    132 H132       31.6428    3.7926   -8.3284 H         1 UNK         0.3459 
    133 H133       31.8463    2.0905   -8.6034 H         1 UNK         0.3459 
    134 H134       34.2924    2.3009   -4.9058 H         1 UNK         0.0612 
    135 H135       34.9017    0.7245   -5.2781 H         1 UNK         0.0612 
    136 H136       33.5994   -1.4654   -5.1310 H         1 UNK         0.0624 
    137 H137       33.8782   -0.8272   -3.5238 H         1 UNK         0.0624 
@<TRIPOS>BOND
     1    1    2 1    
     2    1   72 1    
     3    1   73 1    
     4    1   74 1    
     5    2    3 2    
     6    2    4 am   BACKBONE|DICT|INTERRES
     7    4    5 1    
     8    4   75 1    
     9    5    6 1    
    10    5   35 1    
    11    5   76 1    
    12    6    7 1    
    13    6   77 1    
    14    6   78 1    
    15    7    8 1    
    16    8    9 1    
    17    8   79 1    
    18    8   80 1    
    19    9   10 ar   
    20    9   14 ar   
    21   10   11 ar   
    22   10   81 1    
    23   11   12 ar   
    24   11   71 1    
    25   12   13 ar   
    26   12   82 1    
    27   13   14 ar   
    28   13   15 1    
    29   14   83 1    
    30   15   16 1    
    31   15   84 1    
    32   15   85 1    
    33   16   17 1    
    34   17   18 1    
    35   17   86 1    
    36   17   87 1    
    37   18   19 1    
    38   18   37 1    
    39   18   88 1    
    40   19   20 am   BACKBONE|DICT|INTERRES
    41   19   89 1    
    42   20   21 2    
    43   20   22 1    
    44   22   23 1    
    45   22   24 1    
    46   22   90 1    
    47   23   91 1    
    48   23   92 1    
    49   23   93 1    
    50   24   25 am   BACKBONE|DICT|INTERRES
    51   24   94 1    
    52   25   26 2    
    53   25   27 1    
    54   27   28 1    
    55   27   29 1    
    56   27   95 1    
    57   28   96 1    
    58   28   97 1    
    59   28   98 1    
    60   29   30 am   BACKBONE|DICT|INTERRES
    61   29   99 1    
    62   30   31 2    
    63   30   32 1    
    64   32   33 1    
    65   32   34 1    
    66   32  100 1    
    67   33  101 1    
    68   33  102 1    
    69   33  103 1    
    70   34   35 am   BACKBONE|DICT|INTERRES
    71   34  104 1    
    72   35   36 2    
    73   37   38 2    
    74   37   39 am   BACKBONE|DICT|INTERRES
    75   39   40 1    
    76   39  105 1    
    77   40   41 1    
    78   40   42 1    
    79   40  106 1    
    80   41  107 1    
    81   41  108 1    
    82   41  109 1    
    83   42   43 2    
    84   42   44 am   BACKBONE|DICT|INTERRES
    85   44   45 1    
    86   44  110 1    
    87   45   46 1    
    88   45   47 1    
    89   45  111 1    
    90   46  112 1    
    91   46  113 1    
    92   46  114 1    
    93   47   48 2    
    94   47   49 am   BACKBONE|DICT|INTERRES
    95   49   50 1    
    96   49  115 1    
    97   50   51 1    
    98   50   52 1    
    99   50  116 1    
   100   51  117 1    
   101   51  118 1    
   102   51  119 1    
   103   52   53 2    
   104   52   54 am   BACKBONE|DICT|INTERRES
   105   54   55 1    
   106   54  120 1    
   107   55   56 1    
   108   55   57 1    
   109   55  121 1    
   110   56  122 1    
   111   56  123 1    
   112   56  124 1    
   113   57   58 2    
   114   57   59 am   BACKBONE|DICT|INTERRES
   115   59   60 1    
   116   59  125 1    
   117   60   61 1    
   118   60   62 1    
   119   60  126 1    
   120   61  127 1    
   121   61  128 1    
   122   61  129 1    
   123   62   63 2    
   124   62   64 am   BACKBONE|DICT|INTERRES
   125   64   65 1    
   126   64  130 1    
   127   65   66 1    
   128   65   69 1    
   129   65  131 1    
   130   66   67 am   BACKBONE|DICT|INTERRES
   131   66   68 2    
   132   67  132 1    
   133   67  133 1    
   134   69   70 1    
   135   69  134 1    
   136   69  135 1    
   137   70   71 1    
   138   71  136 1    
   139   71  137 1    
@<TRIPOS>SUBSTRUCTURE
     1 UNK         1 GROUP             0       ****    0 ROOT    
