@<TRIPOS>MOLECULE
3R137
137   139    1
SMALL
USER_CHARGES


@<TRIPOS>ATOM
      1 CA         28.5583   -4.0022   -4.8707 C.3       0 UNK        -0.2020 
      2 C          27.7996   -3.9182   -3.5569 C.2       0 UNK         0.4855 
      3 O          26.6753   -4.4112   -3.4601 O.2       0 UNK        -0.5197 
      4 N          28.4177   -3.3005   -2.5435 N.am      1 UNK        -0.4892 
      5 CA         27.9346   -3.1758   -1.1623 C.3       1 UNK         0.0835 
      6 C6         29.0858   -2.7977   -0.1916 C.3       12 UNK        -0.0855 
      7 S7         30.4840   -3.9727   -0.2520 S.3       12 UNK        -0.2931 
      8 C8         31.8692   -2.8992   -0.7537 C.3       12 UNK         0.0378 
      9 C9         31.7419   -2.4262   -2.1953 C.ar      12 UNK        -0.0802 
     10 C10        32.0678   -3.2873   -3.2471 C.ar      12 UNK        -0.0944 
     11 C11        31.9786   -2.8536   -4.5731 C.ar      12 UNK        -0.0787 
     12 C12        31.5327   -1.5569   -4.8447 C.ar      12 UNK        -0.0862 
     13 C13        31.2087   -0.6835   -3.8029 C.ar      12 UNK        -0.0733 
     14 C14        31.3270   -1.1213   -2.4792 C.ar      12 UNK        -0.0832 
     15 C15        30.7657    0.7403   -4.1218 C.3       12 UNK         0.0240 
     16 S16        29.2672    1.2614   -3.2262 S.3       12 UNK        -0.2522 
     17 C17        28.0323    0.0511   -3.8101 C.3       12 UNK        -0.0967 
     18 CA         27.5091    0.2593   -5.2540 C.3       5 UNK         0.0660 
     19 N          26.5511   -0.7885   -5.6261 N.am      5 UNK        -0.4015 
     20 C          26.1835   -1.0817   -6.8830 C.2       4 UNK         0.4946 
     21 O          26.6464   -0.5309   -7.8792 O.2       4 UNK        -0.5353 
     22 CA         25.0743   -2.1333   -7.0693 C.3       4 UNK         0.0277 
     23 CB         25.6540   -3.5545   -7.1183 C.3       4 UNK        -0.1981 
     24 N          24.0353   -2.0606   -6.0407 N.am      4 UNK        -0.4209 
     25 C          23.1794   -1.0375   -5.9171 C.2       3 UNK         0.4942 
     26 O          23.1427   -0.0843   -6.6932 O.2       3 UNK        -0.5208 
     27 CA         22.2368   -1.0511   -4.7015 C.3       3 UNK         0.0250 
     28 CB         20.9275   -1.7775   -5.0479 C.3       3 UNK        -0.1990 
     29 N          22.8098   -1.6320   -3.4803 N.am      3 UNK        -0.4232 
     30 C          23.9505   -1.2505   -2.8856 C.2       2 UNK         0.4993 
     31 O          24.7138   -0.4100   -3.3640 O.2       2 UNK        -0.5286 
     32 CA         24.3052   -1.9031   -1.5395 C.3       2 UNK         0.0209 
     33 CB         23.2540   -2.9108   -1.0271 C.3       2 UNK        -0.1931 
     34 N          25.5961   -2.5840   -1.6397 N.am      2 UNK        -0.4546 
     35 C          26.7243   -2.2185   -1.0216 C.2       1 UNK         0.5154 
     36 O          26.8251   -1.1906   -0.3484 O.2       1 UNK        -0.5181 
     37 C          26.9039    1.6595   -5.4761 C.2       5 UNK         0.5014 
     38 O          27.6020    2.5561   -5.9522 O.2       5 UNK        -0.5248 
     39 N          25.6077    1.8148   -5.1648 N.am      6 UNK        -0.4434 
     40 CA         24.8365    3.0267   -5.4526 C.3       6 UNK         0.0363 
     41 CB         23.4519    2.9318   -4.7931 C.3       6 UNK        -0.1936 
     42 C          24.7108    3.3087   -6.9624 C.2       6 UNK         0.5081 
     43 O          24.7267    4.4747   -7.3579 O.2       6 UNK        -0.5248 
     44 N          24.6040    2.2466   -7.7745 N.am      7 UNK        -0.4718 
     45 CA         24.5772    2.3158   -9.2351 C.3       7 UNK         0.0273 
     46 CB         24.0889    0.9807   -9.8203 C.3       7 UNK        -0.1935 
     47 C          25.9299    2.7275   -9.8412 C.2       7 UNK         0.5018 
     48 O          25.9477    3.6307  -10.6795 O.2       7 UNK        -0.5186 
     49 N          27.0305    2.0839   -9.4229 N.am      8 UNK        -0.4240 
     50 CA         28.3784    2.3823   -9.9116 C.3       8 UNK         0.0235 
     51 CB         28.5918    1.7489  -11.3010 C.3       8 UNK        -0.2000 
     52 C          29.4426    1.8701   -8.9367 C.2       8 UNK         0.4941 
     53 O          29.2691    0.8134   -8.3284 O.2       8 UNK        -0.5273 
     54 N          30.5811    2.5721   -8.8723 N.am      9 UNK        -0.4262 
     55 CA         31.7706    2.1767   -8.1109 C.3       9 UNK         0.0264 
     56 CB         32.6390    3.4219   -7.8521 C.3       9 UNK        -0.1955 
     57 C          32.5478    1.0472   -8.8183 C.2       9 UNK         0.5031 
     58 O          33.7059    1.2339   -9.1955 O.2       9 UNK        -0.5390 
     59 N          31.8861   -0.1034   -9.0014 N.am      10 UNK        -0.4204 
     60 CA         32.3593   -1.2678   -9.7611 C.3       10 UNK         0.0237 
     61 CB         31.2460   -2.3281   -9.7914 C.3       10 UNK        -0.1985 
     62 C          33.6798   -1.8841   -9.2614 C.2       10 UNK         0.4970 
     63 O          34.4160   -2.4579  -10.0649 O.2       10 UNK        -0.4914 
     64 N          33.9555   -1.7448   -7.9602 N.am      11 UNK        -0.4285 
     65 CA         35.2126   -2.1474   -7.3143 C.3       11 UNK         0.1007 
     66 C          36.3402   -1.0762   -7.4148 C.2       11 UNK         0.5703 
     67 N          36.1162    0.0971   -7.9967 N.am      11 UNK        -0.7361 
     68 O          37.4581   -1.3224   -6.9678 O.2       11 UNK        -0.4986 
     69 C69        34.9639   -2.5883   -5.8471 C.3       12 UNK        -0.0947 
     70 S70        34.1295   -4.2088   -5.7307 S.3       12 UNK        -0.2240 
     71 C71        32.3566   -3.7865   -5.7151 C.3       12 UNK         0.0194 
     72 H72        29.5907   -4.2947   -4.6924 H         1 UNK         0.0906 
     73 H73        28.1170   -4.7529   -5.5254 H         1 UNK         0.0906 
     74 H74        28.5492   -3.0427   -5.3871 H         1 UNK         0.0906 
     75 H75        29.3518   -2.9405   -2.6897 H         1 UNK         0.3140 
     76 H76        27.5735   -4.1611   -0.8584 H         1 UNK         0.1085 
     77 H77        28.7203   -2.7816    0.8371 H         1 UNK         0.0836 
     78 H78        29.4423   -1.7869   -0.3952 H         1 UNK         0.0836 
     79 H79        32.8013   -3.4548   -0.6398 H         1 UNK         0.0731 
     80 H80        31.9388   -2.0515   -0.0701 H         1 UNK         0.0731 
     81 H81        32.4040   -4.2931   -3.0336 H         1 UNK         0.1312 
     82 H82        31.4484   -1.2224   -5.8691 H         1 UNK         0.1406 
     83 H83        31.0923   -0.4423   -1.6704 H         1 UNK         0.1631 
     84 H84        30.5801    0.8579   -5.1895 H         1 UNK         0.0717 
     85 H85        31.5782    1.4238   -3.8729 H         1 UNK         0.0717 
     86 H86        28.4697   -0.9404   -3.7263 H         1 UNK         0.0934 
     87 H87        27.2073    0.0715   -3.0975 H         1 UNK         0.0934 
     88 H88        28.3620    0.1685   -5.9288 H         1 UNK         0.0739 
     89 H89        26.0313   -1.2009   -4.8622 H         1 UNK         0.3093 
     90 H90        24.6042   -1.9333   -8.0349 H         1 UNK         0.0818 
     91 H91        26.5022   -3.6129   -7.8022 H         1 UNK         0.0819 
     92 H92        25.9942   -3.8837   -6.1380 H         1 UNK         0.0819 
     93 H93        24.9090   -4.2701   -7.4666 H         1 UNK         0.0819 
     94 H94        23.9941   -2.8105   -5.3656 H         1 UNK         0.3041 
     95 H95        21.9948   -0.0115   -4.4734 H         1 UNK         0.0784 
     96 H96        20.4688   -1.3507   -5.9412 H         1 UNK         0.0793 
     97 H97        21.0922   -2.8383   -5.2413 H         1 UNK         0.0793 
     98 H98        20.1991   -1.6913   -4.2413 H         1 UNK         0.0793 
     99 H99        22.2523   -2.3356   -3.0177 H         1 UNK         0.3024 
    100 H100       24.3627   -1.0862   -0.8165 H         1 UNK         0.1171 
    101 H101       23.5388   -3.3020   -0.0501 H         1 UNK         0.0786 
    102 H102       22.2769   -2.4416   -0.9023 H         1 UNK         0.0786 
    103 H103       23.1393   -3.7640   -1.6972 H         1 UNK         0.0786 
    104 H104       25.6521   -3.3888   -2.2604 H         1 UNK         0.2977 
    105 H105       25.1210    1.0449   -4.7157 H         1 UNK         0.3127 
    106 H106       25.3687    3.8678   -5.0030 H         1 UNK         0.0770 
    107 H107       22.8467    2.1410   -5.2350 H         1 UNK         0.0814 
    108 H108       22.9013    3.8655   -4.9152 H         1 UNK         0.0814 
    109 H109       23.5310    2.7385   -3.7231 H         1 UNK         0.0814 
    110 H110       24.5085    1.3266   -7.3585 H         1 UNK         0.2983 
    111 H111       23.8495    3.0817   -9.5132 H         1 UNK         0.0947 
    112 H112       24.0147    1.0371  -10.9070 H         1 UNK         0.0806 
    113 H113       23.1008    0.7195   -9.4408 H         1 UNK         0.0806 
    114 H114       24.7648    0.1596   -9.5840 H         1 UNK         0.0806 
    115 H115       26.9657    1.3345   -8.7363 H         1 UNK         0.3000 
    116 H116       28.4876    3.4665   -9.9894 H         1 UNK         0.0850 
    117 H117       29.6015    1.9357  -11.6692 H         1 UNK         0.0810 
    118 H118       27.9014    2.1564  -12.0395 H         1 UNK         0.0810 
    119 H119       28.4501    0.6676  -11.2715 H         1 UNK         0.0810 
    120 H120       30.6724    3.4017   -9.4417 H         1 UNK         0.3040 
    121 H121       31.4525    1.7919   -7.1409 H         1 UNK         0.0766 
    122 H122       32.0875    4.1823   -7.2989 H         1 UNK         0.0812 
    123 H123       32.9911    3.8709   -8.7817 H         1 UNK         0.0812 
    124 H124       33.5190    3.1678   -7.2594 H         1 UNK         0.0812 
    125 H125       30.9145   -0.1163   -8.6969 H         1 UNK         0.3205 
    126 H126       32.5351   -0.9305  -10.7846 H         1 UNK         0.0754 
    127 H127       31.5544   -3.2054  -10.3620 H         1 UNK         0.0769 
    128 H128       30.3421   -1.9395  -10.2616 H         1 UNK         0.0769 
    129 H129       30.9814   -2.6660   -8.7890 H         1 UNK         0.0769 
    130 H130       33.3077   -1.2313   -7.3852 H         1 UNK         0.2981 
    131 H131       35.6076   -3.0134   -7.8489 H         1 UNK         0.0541 
    132 H132       35.2155    0.3326   -8.4023 H         1 UNK         0.3459 
    133 H133       36.8703    0.7625   -8.0509 H         1 UNK         0.3459 
    134 H134       35.9093   -2.7045   -5.3142 H         1 UNK         0.0612 
    135 H135       34.4098   -1.8275   -5.2964 H         1 UNK         0.0612 
    136 H136       32.0818   -3.3582   -6.6788 H         1 UNK         0.0624 
    137 H137       31.7866   -4.7116   -5.6237 H         1 UNK         0.0624 
@<TRIPOS>BOND
     1    1    2 1    
     2    1   72 1    
     3    1   73 1    
     4    1   74 1    
     5    2    3 2    
     6    2    4 am   BACKBONE|DICT|INTERRES
     7    4    5 1    
     8    4   75 1    
     9    5    6 1    
    10    5   35 1    
    11    5   76 1    
    12    6    7 1    
    13    6   77 1    
    14    6   78 1    
    15    7    8 1    
    16    8    9 1    
    17    8   79 1    
    18    8   80 1    
    19    9   10 ar   
    20    9   14 ar   
    21   10   11 ar   
    22   10   81 1    
    23   11   12 ar   
    24   11   71 1    
    25   12   13 ar   
    26   12   82 1    
    27   13   14 ar   
    28   13   15 1    
    29   14   83 1    
    30   15   16 1    
    31   15   84 1    
    32   15   85 1    
    33   16   17 1    
    34   17   18 1    
    35   17   86 1    
    36   17   87 1    
    37   18   19 1    
    38   18   37 1    
    39   18   88 1    
    40   19   20 am   BACKBONE|DICT|INTERRES
    41   19   89 1    
    42   20   21 2    
    43   20   22 1    
    44   22   23 1    
    45   22   24 1    
    46   22   90 1    
    47   23   91 1    
    48   23   92 1    
    49   23   93 1    
    50   24   25 am   BACKBONE|DICT|INTERRES
    51   24   94 1    
    52   25   26 2    
    53   25   27 1    
    54   27   28 1    
    55   27   29 1    
    56   27   95 1    
    57   28   96 1    
    58   28   97 1    
    59   28   98 1    
    60   29   30 am   BACKBONE|DICT|INTERRES
    61   29   99 1    
    62   30   31 2    
    63   30   32 1    
    64   32   33 1    
    65   32   34 1    
    66   32  100 1    
    67   33  101 1    
    68   33  102 1    
    69   33  103 1    
    70   34   35 am   BACKBONE|DICT|INTERRES
    71   34  104 1    
    72   35   36 2    
    73   37   38 2    
    74   37   39 am   BACKBONE|DICT|INTERRES
    75   39   40 1    
    76   39  105 1    
    77   40   41 1    
    78   40   42 1    
    79   40  106 1    
    80   41  107 1    
    81   41  108 1    
    82   41  109 1    
    83   42   43 2    
    84   42   44 am   BACKBONE|DICT|INTERRES
    85   44   45 1    
    86   44  110 1    
    87   45   46 1    
    88   45   47 1    
    89   45  111 1    
    90   46  112 1    
    91   46  113 1    
    92   46  114 1    
    93   47   48 2    
    94   47   49 am   BACKBONE|DICT|INTERRES
    95   49   50 1    
    96   49  115 1    
    97   50   51 1    
    98   50   52 1    
    99   50  116 1    
   100   51  117 1    
   101   51  118 1    
   102   51  119 1    
   103   52   53 2    
   104   52   54 am   BACKBONE|DICT|INTERRES
   105   54   55 1    
   106   54  120 1    
   107   55   56 1    
   108   55   57 1    
   109   55  121 1    
   110   56  122 1    
   111   56  123 1    
   112   56  124 1    
   113   57   58 2    
   114   57   59 am   BACKBONE|DICT|INTERRES
   115   59   60 1    
   116   59  125 1    
   117   60   61 1    
   118   60   62 1    
   119   60  126 1    
   120   61  127 1    
   121   61  128 1    
   122   61  129 1    
   123   62   63 2    
   124   62   64 am   BACKBONE|DICT|INTERRES
   125   64   65 1    
   126   64  130 1    
   127   65   66 1    
   128   65   69 1    
   129   65  131 1    
   130   66   67 am   BACKBONE|DICT|INTERRES
   131   66   68 2    
   132   67  132 1    
   133   67  133 1    
   134   69   70 1    
   135   69  134 1    
   136   69  135 1    
   137   70   71 1    
   138   71  136 1    
   139   71  137 1    
@<TRIPOS>SUBSTRUCTURE
     1 UNK         1 GROUP             0       ****    0 ROOT    
