@<TRIPOS>MOLECULE
3R137
137   139    1
SMALL
USER_CHARGES


@<TRIPOS>ATOM
      1 CA         27.0199   -7.6980   -3.3314 C.3       0 UNK        -0.2020 
      2 C          26.7644   -6.5318   -2.3883 C.2       0 UNK         0.4855 
      3 O          25.9442   -6.6496   -1.4768 O.2       0 UNK        -0.5197 
      4 N          27.4681   -5.4120   -2.5943 N.am      1 UNK        -0.4892 
      5 CA         27.3121   -4.1722   -1.8245 C.3       1 UNK         0.0835 
      6 C6         28.5237   -3.2282   -2.0072 C.3       12 UNK        -0.0855 
      7 S7         30.0850   -3.9704   -1.4183 S.3       12 UNK        -0.2931 
      8 C8         31.2332   -3.5762   -2.7870 C.3       12 UNK         0.0378 
      9 C9         31.2757   -2.0968   -3.1734 C.ar      12 UNK        -0.0802 
     10 C10        31.4738   -1.7443   -4.5127 C.ar      12 UNK        -0.0944 
     11 C11        31.4822   -0.4016   -4.9014 C.ar      12 UNK        -0.0787 
     12 C12        31.3029    0.5947   -3.9397 C.ar      12 UNK        -0.0862 
     13 C13        31.0625    0.2585   -2.6064 C.ar      12 UNK        -0.0733 
     14 C14        31.0894   -1.0844   -2.2235 C.ar      12 UNK        -0.0832 
     15 C15        30.7086    1.3345   -1.5880 C.3       12 UNK         0.0240 
     16 S16        29.2698    2.3479   -2.0892 S.3       12 UNK        -0.2522 
     17 C17        28.0254    1.1181   -2.6328 C.3       12 UNK        -0.0967 
     18 CA         27.8599    1.0938   -4.1769 C.3       5 UNK         0.0660 
     19 N          27.2372   -0.1393   -4.6607 N.am      5 UNK        -0.4015 
     20 C          27.3605   -0.6002   -5.9156 C.2       4 UNK         0.4946 
     21 O          28.0776   -0.0797   -6.7713 O.2       4 UNK        -0.5353 
     22 CA         26.5123   -1.8232   -6.3054 C.3       4 UNK         0.0277 
     23 CB         27.2907   -3.1267   -6.0693 C.3       4 UNK        -0.1981 
     24 N          25.2241   -1.8735   -5.6070 N.am      4 UNK        -0.4209 
     25 C          24.2345   -0.9900   -5.8122 C.2       3 UNK         0.4942 
     26 O          24.2953   -0.0857   -6.6426 O.2       3 UNK        -0.5208 
     27 CA         22.9886   -1.0811   -4.9145 C.3       3 UNK         0.0250 
     28 CB         21.9230   -1.9744   -5.5682 C.3       3 UNK        -0.1990 
     29 N          23.2585   -1.5595   -3.5578 N.am      3 UNK        -0.4232 
     30 C          24.1351   -1.0303   -2.6925 C.2       2 UNK         0.4993 
     31 O          24.8317   -0.0422   -2.9368 O.2       2 UNK        -0.5286 
     32 CA         24.3104   -1.7654   -1.3499 C.3       2 UNK         0.0209 
     33 CB         23.1081   -2.6597   -0.9701 C.3       2 UNK        -0.1931 
     34 N          25.5518   -2.5517   -1.2913 N.am      2 UNK        -0.4546 
     35 C          25.9993   -3.4456   -2.1889 C.2       1 UNK         0.5154 
     36 O          25.4444   -3.6795   -3.2675 O.2       1 UNK        -0.5181 
     37 C          27.1069    2.3250   -4.7113 C.2       5 UNK         0.5014 
     38 O          27.7494    3.2632   -5.1838 O.2       5 UNK        -0.5248 
     39 N          25.7656    2.2829   -4.6759 N.am      6 UNK        -0.4434 
     40 CA         24.8906    3.3383   -5.1993 C.3       6 UNK         0.0363 
     41 CB         23.4270    3.0156   -4.8608 C.3       6 UNK        -0.1936 
     42 C          25.0602    3.5756   -6.7120 C.2       6 UNK         0.5081 
     43 O          25.0980    4.7279   -7.1440 O.2       6 UNK        -0.5248 
     44 N          25.1832    2.4873   -7.4836 N.am      7 UNK        -0.4718 
     45 CA         25.4351    2.5128   -8.9268 C.3       7 UNK         0.0273 
     46 CB         25.0122    1.1618   -9.5281 C.3       7 UNK        -0.1935 
     47 C          26.8995    2.8124   -9.2959 C.2       7 UNK         0.5018 
     48 O          27.1556    3.1457  -10.4535 O.2       7 UNK        -0.5186 
     49 N          27.8234    2.6606   -8.3328 N.am      8 UNK        -0.4240 
     50 CA         29.2842    2.7194   -8.4778 C.3       8 UNK         0.0235 
     51 CB         29.7526    4.1500   -8.8165 C.3       8 UNK        -0.2000 
     52 C          29.7926    1.6597   -9.4756 C.2       8 UNK         0.4941 
     53 O          30.4904    1.9869  -10.4392 O.2       8 UNK        -0.5273 
     54 N          29.3845    0.4041   -9.2486 N.am      9 UNK        -0.4262 
     55 CA         29.5916   -0.7421  -10.1358 C.3       9 UNK         0.0264 
     56 CB         28.5943   -1.8478   -9.7440 C.3       9 UNK        -0.1955 
     57 C          31.0492   -1.2430  -10.1473 C.2       9 UNK         0.5031 
     58 O          31.3294   -2.3335   -9.6444 O.2       9 UNK        -0.5390 
     59 N          31.9534   -0.4277  -10.7080 N.am      10 UNK        -0.4204 
     60 CA         33.3942   -0.6362  -10.9396 C.3       10 UNK         0.0237 
     61 CB         33.6461   -1.8490  -11.8569 C.3       10 UNK        -0.1985 
     62 C          34.2582   -0.7194   -9.6668 C.2       10 UNK         0.4970 
     63 O          35.3479   -0.1465   -9.6460 O.2       10 UNK        -0.4914 
     64 N          33.7527   -1.4061   -8.6380 N.am      11 UNK        -0.4285 
     65 CA         34.3097   -1.5235   -7.2804 C.3       11 UNK         0.1007 
     66 C          35.5999   -2.3908   -7.1732 C.2       11 UNK         0.5703 
     67 N          35.9572   -3.1726   -8.1854 N.am      11 UNK        -0.7361 
     68 O          36.2731   -2.3836   -6.1451 O.2       11 UNK        -0.4986 
     69 C69        34.4469   -0.1544   -6.5450 C.3       12 UNK        -0.0947 
     70 S70        33.0441    1.0064   -6.7304 S.3       12 UNK        -0.2240 
     71 C71        31.5866   -0.0216   -6.3687 C.3       12 UNK         0.0194 
     72 H72        26.1015   -7.9653   -3.8534 H         1 UNK         0.0906 
     73 H73        27.7773   -7.4610   -4.0784 H         1 UNK         0.0906 
     74 H74        27.3586   -8.5681   -2.7696 H         1 UNK         0.0906 
     75 H75        28.1248   -5.3710   -3.3594 H         1 UNK         0.3140 
     76 H76        27.2478   -4.4446   -0.7683 H         1 UNK         0.1085 
     77 H77        28.3804   -2.3017   -1.4480 H         1 UNK         0.0836 
     78 H78        28.6261   -2.9336   -3.0523 H         1 UNK         0.0836 
     79 H79        30.9504   -4.1814   -3.6498 H         1 UNK         0.0731 
     80 H80        32.2380   -3.8919   -2.5036 H         1 UNK         0.0731 
     81 H81        31.5934   -2.5181   -5.2584 H         1 UNK         0.1312 
     82 H82        31.2800    1.6329   -4.2426 H         1 UNK         0.1406 
     83 H83        30.9207   -1.3426   -1.1873 H         1 UNK         0.1631 
     84 H84        31.5700    1.9880   -1.4451 H         1 UNK         0.0717 
     85 H85        30.4934    0.8908   -0.6148 H         1 UNK         0.0717 
     86 H86        28.3242    0.1338   -2.2712 H         1 UNK         0.0934 
     87 H87        27.0763    1.3335   -2.1382 H         1 UNK         0.0934 
     88 H88        28.8527    1.1325   -4.6223 H         1 UNK         0.0739 
     89 H89        26.5526   -0.5634   -4.0473 H         1 UNK         0.3093 
     90 H90        26.3087   -1.7438   -7.3756 H         1 UNK         0.0818 
     91 H91        28.2623   -3.1018   -6.5639 H         1 UNK         0.0819 
     92 H92        26.7482   -3.9869   -6.4618 H         1 UNK         0.0819 
     93 H93        27.4725   -3.3036   -5.0114 H         1 UNK         0.0819 
     94 H94        25.1184   -2.5762   -4.8790 H         1 UNK         0.3041 
     95 H95        22.5772   -0.0752   -4.8220 H         1 UNK         0.0784 
     96 H96        21.6851   -1.6250   -6.5741 H         1 UNK         0.0793 
     97 H97        22.2598   -3.0085   -5.6532 H         1 UNK         0.0793 
     98 H98        20.9940   -1.9682   -4.9978 H         1 UNK         0.0793 
     99 H99        22.7744   -2.3991   -3.2745 H         1 UNK         0.3024 
    100 H100       24.3926   -0.9833   -0.5930 H         1 UNK         0.1171 
    101 H101       23.2105   -3.0335    0.0488 H         1 UNK         0.0786 
    102 H102       22.1705   -2.1030   -1.0095 H         1 UNK         0.0786 
    103 H103       23.0120   -3.5271   -1.6245 H         1 UNK         0.0786 
    104 H104       26.1065   -2.4025   -0.4594 H         1 UNK         0.2977 
    105 H105       25.3178    1.4824   -4.2409 H         1 UNK         0.3127 
    106 H106       25.1601    4.2648   -4.6877 H         1 UNK         0.0770 
    107 H107       23.0765    2.1322   -5.3935 H         1 UNK         0.0814 
    108 H108       22.7739    3.8422   -5.1434 H         1 UNK         0.0814 
    109 H109       23.2905    2.8439   -3.7929 H         1 UNK         0.0814 
    110 H110       25.0510    1.5689   -7.0635 H         1 UNK         0.2983 
    111 H111       24.8184    3.2955   -9.3743 H         1 UNK         0.0947 
    112 H112       25.1446    1.1544  -10.6109 H         1 UNK         0.0806 
    113 H113       23.9616    0.9499   -9.3286 H         1 UNK         0.0806 
    114 H114       25.6022    0.3394   -9.1210 H         1 UNK         0.0806 
    115 H115       27.4929    2.3893   -7.4160 H         1 UNK         0.3000 
    116 H116       29.6992    2.4625   -7.5027 H         1 UNK         0.0850 
    117 H117       30.8416    4.2093   -8.8240 H         1 UNK         0.0810 
    118 H118       29.3930    4.8677   -8.0791 H         1 UNK         0.0810 
    119 H119       29.4035    4.4726   -9.7978 H         1 UNK         0.0810 
    120 H120       28.8513    0.2232   -8.3980 H         1 UNK         0.3040 
    121 H121       29.3508   -0.4299  -11.1542 H         1 UNK         0.0766 
    122 H122       27.5643   -1.4973   -9.8125 H         1 UNK         0.0812 
    123 H123       28.7633   -2.1947   -8.7247 H         1 UNK         0.0812 
    124 H124       28.6879   -2.7118  -10.4031 H         1 UNK         0.0812 
    125 H125       31.6055    0.4966  -10.9570 H         1 UNK         0.3205 
    126 H126       33.7289    0.2523  -11.4775 H         1 UNK         0.0754 
    127 H127       34.7059   -1.9405  -12.0986 H         1 UNK         0.0769 
    128 H128       33.1071   -1.7507  -12.7992 H         1 UNK         0.0769 
    129 H129       33.3383   -2.7858  -11.3915 H         1 UNK         0.0769 
    130 H130       32.8631   -1.8741   -8.7998 H         1 UNK         0.2981 
    131 H131       33.5696   -2.1040   -6.7312 H         1 UNK         0.0541 
    132 H132       35.4087   -3.1945   -9.0298 H         1 UNK         0.3459 
    133 H133       36.7869   -3.7387   -8.1042 H         1 UNK         0.3459 
    134 H134       34.5955   -0.3201   -5.4765 H         1 UNK         0.0612 
    135 H135       35.3396    0.3674   -6.8936 H         1 UNK         0.0612 
    136 H136       30.6980    0.5511   -6.6274 H         1 UNK         0.0624 
    137 H137       31.5643   -0.9003   -7.0124 H         1 UNK         0.0624 
@<TRIPOS>BOND
     1    1    2 1    
     2    1   72 1    
     3    1   73 1    
     4    1   74 1    
     5    2    3 2    
     6    2    4 am   BACKBONE|DICT|INTERRES
     7    4    5 1    
     8    4   75 1    
     9    5    6 1    
    10    5   35 1    
    11    5   76 1    
    12    6    7 1    
    13    6   77 1    
    14    6   78 1    
    15    7    8 1    
    16    8    9 1    
    17    8   79 1    
    18    8   80 1    
    19    9   10 ar   
    20    9   14 ar   
    21   10   11 ar   
    22   10   81 1    
    23   11   12 ar   
    24   11   71 1    
    25   12   13 ar   
    26   12   82 1    
    27   13   14 ar   
    28   13   15 1    
    29   14   83 1    
    30   15   16 1    
    31   15   84 1    
    32   15   85 1    
    33   16   17 1    
    34   17   18 1    
    35   17   86 1    
    36   17   87 1    
    37   18   19 1    
    38   18   37 1    
    39   18   88 1    
    40   19   20 am   BACKBONE|DICT|INTERRES
    41   19   89 1    
    42   20   21 2    
    43   20   22 1    
    44   22   23 1    
    45   22   24 1    
    46   22   90 1    
    47   23   91 1    
    48   23   92 1    
    49   23   93 1    
    50   24   25 am   BACKBONE|DICT|INTERRES
    51   24   94 1    
    52   25   26 2    
    53   25   27 1    
    54   27   28 1    
    55   27   29 1    
    56   27   95 1    
    57   28   96 1    
    58   28   97 1    
    59   28   98 1    
    60   29   30 am   BACKBONE|DICT|INTERRES
    61   29   99 1    
    62   30   31 2    
    63   30   32 1    
    64   32   33 1    
    65   32   34 1    
    66   32  100 1    
    67   33  101 1    
    68   33  102 1    
    69   33  103 1    
    70   34   35 am   BACKBONE|DICT|INTERRES
    71   34  104 1    
    72   35   36 2    
    73   37   38 2    
    74   37   39 am   BACKBONE|DICT|INTERRES
    75   39   40 1    
    76   39  105 1    
    77   40   41 1    
    78   40   42 1    
    79   40  106 1    
    80   41  107 1    
    81   41  108 1    
    82   41  109 1    
    83   42   43 2    
    84   42   44 am   BACKBONE|DICT|INTERRES
    85   44   45 1    
    86   44  110 1    
    87   45   46 1    
    88   45   47 1    
    89   45  111 1    
    90   46  112 1    
    91   46  113 1    
    92   46  114 1    
    93   47   48 2    
    94   47   49 am   BACKBONE|DICT|INTERRES
    95   49   50 1    
    96   49  115 1    
    97   50   51 1    
    98   50   52 1    
    99   50  116 1    
   100   51  117 1    
   101   51  118 1    
   102   51  119 1    
   103   52   53 2    
   104   52   54 am   BACKBONE|DICT|INTERRES
   105   54   55 1    
   106   54  120 1    
   107   55   56 1    
   108   55   57 1    
   109   55  121 1    
   110   56  122 1    
   111   56  123 1    
   112   56  124 1    
   113   57   58 2    
   114   57   59 am   BACKBONE|DICT|INTERRES
   115   59   60 1    
   116   59  125 1    
   117   60   61 1    
   118   60   62 1    
   119   60  126 1    
   120   61  127 1    
   121   61  128 1    
   122   61  129 1    
   123   62   63 2    
   124   62   64 am   BACKBONE|DICT|INTERRES
   125   64   65 1    
   126   64  130 1    
   127   65   66 1    
   128   65   69 1    
   129   65  131 1    
   130   66   67 am   BACKBONE|DICT|INTERRES
   131   66   68 2    
   132   67  132 1    
   133   67  133 1    
   134   69   70 1    
   135   69  134 1    
   136   69  135 1    
   137   70   71 1    
   138   71  136 1    
   139   71  137 1    
@<TRIPOS>SUBSTRUCTURE
     1 UNK         1 GROUP             0       ****    0 ROOT    
