@<TRIPOS>MOLECULE
3R137
137   139    1
SMALL
USER_CHARGES


@<TRIPOS>ATOM
      1 CA         29.3217   -2.6836   -6.4345 C.3       0 UNK        -0.2020 
      2 C          28.2240   -3.4690   -5.7389 C.2       0 UNK         0.4855 
      3 O          27.2504   -3.8677   -6.3792 O.2       0 UNK        -0.5197 
      4 N          28.3861   -3.7137   -4.4332 N.am      1 UNK        -0.4892 
      5 CA         27.4672   -4.5205   -3.6238 C.3       1 UNK         0.0835 
      6 C6         28.1134   -5.0307   -2.3083 C.3       12 UNK        -0.0855 
      7 S7         29.7677   -5.7711   -2.5323 S.3       12 UNK        -0.2931 
      8 C8         30.7439   -4.8695   -1.2854 C.3       12 UNK         0.0378 
      9 C9         30.9044   -3.3954   -1.6321 C.ar      12 UNK        -0.0802 
     10 C10        31.8826   -2.9933   -2.5441 C.ar      12 UNK        -0.0944 
     11 C11        32.0605   -1.6399   -2.8450 C.ar      12 UNK        -0.0787 
     12 C12        31.2372   -0.6838   -2.2403 C.ar      12 UNK        -0.0862 
     13 C13        30.2510   -1.0753   -1.3271 C.ar      12 UNK        -0.0733 
     14 C14        30.0987   -2.4299   -1.0205 C.ar      12 UNK        -0.0832 
     15 C15        29.3698   -0.0446   -0.6328 C.3       12 UNK         0.0240 
     16 S16        27.7439    0.1310   -1.4403 S.3       12 UNK        -0.2522 
     17 C17        28.1790    1.1033   -2.9185 C.3       12 UNK        -0.0967 
     18 CA         27.8744    0.3346   -4.2371 C.3       5 UNK         0.0660 
     19 N          26.4292    0.1697   -4.4767 N.am      5 UNK        -0.4015 
     20 C          25.5952    1.1447   -4.8840 C.2       4 UNK         0.4946 
     21 O          25.9674    2.3089   -5.0540 O.2       4 UNK        -0.5353 
     22 CA         24.1184    0.8068   -5.1783 C.3       4 UNK         0.0277 
     23 CB         23.6012    1.6380   -6.3797 C.3       4 UNK        -0.1981 
     24 N          23.8700   -0.6276   -5.3780 N.am      4 UNK        -0.4209 
     25 C          22.6518   -1.1848   -5.4726 C.2       3 UNK         0.4942 
     26 O          21.5938   -0.5576   -5.4034 O.2       3 UNK        -0.5208 
     27 CA         22.5951   -2.7127   -5.6408 C.3       3 UNK         0.0250 
     28 CB         23.1742   -3.1564   -6.9950 C.3       3 UNK        -0.1990 
     29 N          23.2820   -3.4145   -4.5586 N.am      3 UNK        -0.4232 
     30 C          22.9691   -3.3294   -3.2575 C.2       2 UNK         0.4993 
     31 O          21.9827   -2.7304   -2.8270 O.2       2 UNK        -0.5286 
     32 CA         23.9035   -4.0287   -2.2540 C.3       2 UNK         0.0209 
     33 CB         23.1795   -5.1979   -1.5637 C.3       2 UNK        -0.1931 
     34 N          25.1696   -4.5222   -2.8086 N.am      2 UNK        -0.4546 
     35 C          26.1576   -3.7669   -3.3092 C.2       1 UNK         0.5154 
     36 O          26.0654   -2.5476   -3.4889 O.2       1 UNK        -0.5181 
     37 C          28.5816    0.9230   -5.4848 C.2       5 UNK         0.5014 
     38 O          28.4110    0.3806   -6.5782 O.2       5 UNK        -0.5248 
     39 N          29.3136    2.0360   -5.3194 N.am      6 UNK        -0.4434 
     40 CA         30.0771    2.7365   -6.3571 C.3       6 UNK         0.0363 
     41 CB         30.8082    3.9299   -5.7218 C.3       6 UNK        -0.1936 
     42 C          29.2525    3.2008   -7.5734 C.2       6 UNK         0.5081 
     43 O          29.8244    3.3887   -8.6471 O.2       6 UNK        -0.5248 
     44 N          27.9361    3.3834   -7.3974 N.am      7 UNK        -0.4718 
     45 CA         27.0122    3.7311   -8.4777 C.3       7 UNK         0.0273 
     46 CB         25.8209    4.5068   -7.8955 C.3       7 UNK        -0.1935 
     47 C          26.5396    2.5066   -9.2834 C.2       7 UNK         0.5018 
     48 O          26.0626    2.6916  -10.4039 O.2       7 UNK        -0.5186 
     49 N          26.6715    1.2921   -8.7271 N.am      8 UNK        -0.4240 
     50 CA         26.3621    0.0389   -9.4212 C.3       8 UNK         0.0235 
     51 CB         25.8936   -1.0273   -8.4185 C.3       8 UNK        -0.2000 
     52 C          27.5686   -0.4538  -10.2315 C.2       8 UNK         0.4941 
     53 O          27.3989   -0.8539  -11.3840 O.2       8 UNK        -0.5273 
     54 N          28.7634   -0.3844   -9.6346 N.am      9 UNK        -0.4262 
     55 CA         30.0452   -0.6437  -10.2823 C.3       9 UNK         0.0264 
     56 CB         30.3713   -2.1475  -10.2597 C.3       9 UNK        -0.1955 
     57 C          31.0947    0.1639   -9.5212 C.2       9 UNK         0.5031 
     58 O          31.0728    0.1487   -8.2910 O.2       9 UNK        -0.5390 
     59 N          31.9887    0.8496  -10.2434 N.am      10 UNK        -0.4204 
     60 CA         32.9616    1.8090   -9.7048 C.3       10 UNK         0.0237 
     61 CB         33.4162    2.7430  -10.8431 C.3       10 UNK        -0.1985 
     62 C          34.1480    1.1594   -8.9593 C.2       10 UNK         0.4970 
     63 O          35.3052    1.4486   -9.2716 O.2       10 UNK        -0.4914 
     64 N          33.8442    0.2945   -7.9881 N.am      11 UNK        -0.4285 
     65 CA         34.8000   -0.3034   -7.0500 C.3       11 UNK         0.1007 
     66 C          35.3471    0.7095   -6.0040 C.2       11 UNK         0.5703 
     67 N          36.4639    0.3902   -5.3634 N.am      11 UNK        -0.7361 
     68 O          34.7667    1.7638   -5.7488 O.2       11 UNK        -0.4986 
     69 C69        34.2245   -1.5869   -6.3950 C.3       12 UNK        -0.0947 
     70 S70        32.6310   -1.3622   -5.5289 S.3       12 UNK        -0.2240 
     71 C71        33.1684   -1.2233   -3.7992 C.3       12 UNK         0.0194 
     72 H72        28.9233   -2.1491   -7.2955 H         1 UNK         0.0906 
     73 H73        29.7675   -1.9504   -5.7643 H         1 UNK         0.0906 
     74 H74        30.1067   -3.3536   -6.7830 H         1 UNK         0.0906 
     75 H75        29.2028   -3.3693   -3.9476 H         1 UNK         0.3140 
     76 H76        27.1997   -5.3957   -4.2209 H         1 UNK         0.1085 
     77 H77        28.1637   -4.2275   -1.5747 H         1 UNK         0.0836 
     78 H78        27.4829   -5.7955   -1.8511 H         1 UNK         0.0836 
     79 H79        30.2785   -4.9874   -0.3054 H         1 UNK         0.0731 
     80 H80        31.7285   -5.3333   -1.2085 H         1 UNK         0.0731 
     81 H81        32.5156   -3.7349   -3.0127 H         1 UNK         0.1312 
     82 H82        31.3792    0.3634   -2.4683 H         1 UNK         0.1406 
     83 H83        29.3513   -2.7280   -0.2979 H         1 UNK         0.1631 
     84 H84        29.8693    0.9244   -0.5862 H         1 UNK         0.0717 
     85 H85        29.2097   -0.3454    0.4037 H         1 UNK         0.0717 
     86 H86        27.6358    2.0494   -2.8821 H         1 UNK         0.0934 
     87 H87        29.2354    1.3588   -2.8413 H         1 UNK         0.0934 
     88 H88        28.2798   -0.6726   -4.1320 H         1 UNK         0.0739 
     89 H89        26.0793   -0.7581   -4.2576 H         1 UNK         0.3093 
     90 H90        23.5586    1.1089   -4.2910 H         1 UNK         0.0818 
     91 H91        22.5615    1.4308   -6.6263 H         1 UNK         0.0819 
     92 H92        23.6462    2.7039   -6.1576 H         1 UNK         0.0819 
     93 H93        24.1940    1.4629   -7.2769 H         1 UNK         0.0819 
     94 H94        24.6791   -1.2299   -5.4295 H         1 UNK         0.3041 
     95 H95        21.5437   -3.0070   -5.6111 H         1 UNK         0.0784 
     96 H96        22.7382   -2.5853   -7.8161 H         1 UNK         0.0793 
     97 H97        24.2557   -3.0252   -7.0393 H         1 UNK         0.0793 
     98 H98        22.9619   -4.2084   -7.1867 H         1 UNK         0.0793 
     99 H99        24.1092   -3.9368   -4.8066 H         1 UNK         0.3024 
    100 H100       24.1496   -3.2826   -1.4947 H         1 UNK         0.1171 
    101 H101       22.2512   -4.8652   -1.0968 H         1 UNK         0.0786 
    102 H102       23.7926   -5.6370   -0.7763 H         1 UNK         0.0786 
    103 H103       22.9227   -5.9871   -2.2715 H         1 UNK         0.0786 
    104 H104       25.3251   -5.5165   -2.7199 H         1 UNK         0.2977 
    105 H105       29.3513    2.4458   -4.3986 H         1 UNK         0.3127 
    106 H106       30.8362    2.0447   -6.7194 H         1 UNK         0.0770 
    107 H107       30.1100    4.6520   -5.2968 H         1 UNK         0.0814 
    108 H108       31.4106    4.4566   -6.4635 H         1 UNK         0.0814 
    109 H109       31.4861    3.6065   -4.9316 H         1 UNK         0.0814 
    110 H110       27.5277    3.1873   -6.4905 H         1 UNK         0.2983 
    111 H111       27.5217    4.3934   -9.1815 H         1 UNK         0.0947 
    112 H112       25.0939    4.7536   -8.6705 H         1 UNK         0.0806 
    113 H113       26.1443    5.4451   -7.4448 H         1 UNK         0.0806 
    114 H114       25.3028    3.9329   -7.1301 H         1 UNK         0.0806 
    115 H115       27.1427    1.2089   -7.8310 H         1 UNK         0.3000 
    116 H116       25.5419    0.2077  -10.1227 H         1 UNK         0.0850 
    117 H117       25.7215   -1.9819   -8.9175 H         1 UNK         0.0810 
    118 H118       26.6226   -1.2033   -7.6281 H         1 UNK         0.0810 
    119 H119       24.9540   -0.7354   -7.9535 H         1 UNK         0.0810 
    120 H120       28.8343   -0.0466   -8.6774 H         1 UNK         0.3040 
    121 H121       30.0040   -0.2942  -11.3163 H         1 UNK         0.0766 
    122 H122       29.6067   -2.7291  -10.7748 H         1 UNK         0.0812 
    123 H123       30.4514   -2.5269   -9.2407 H         1 UNK         0.0812 
    124 H124       31.3214   -2.3468  -10.7566 H         1 UNK         0.0812 
    125 H125       31.9630    0.7632  -11.2493 H         1 UNK         0.3205 
    126 H126       32.4440    2.4275   -8.9681 H         1 UNK         0.0754 
    127 H127       34.0917    3.5149  -10.4717 H         1 UNK         0.0769 
    128 H128       32.5677    3.2549  -11.2980 H         1 UNK         0.0769 
    129 H129       33.9419    2.1976  -11.6278 H         1 UNK         0.0769 
    130 H130       32.8586    0.1241   -7.7976 H         1 UNK         0.2981 
    131 H131       35.6616   -0.6140   -7.6443 H         1 UNK         0.0541 
    132 H132       36.9514   -0.4703   -5.5582 H         1 UNK         0.3459 
    133 H133       36.8322    1.0290   -4.6763 H         1 UNK         0.3459 
    134 H134       34.9548   -2.0421   -5.7246 H         1 UNK         0.0612 
    135 H135       34.0550   -2.3314   -7.1742 H         1 UNK         0.0612 
    136 H136       33.4827   -0.1972   -3.6028 H         1 UNK         0.0624 
    137 H137       34.0427   -1.8519   -3.6255 H         1 UNK         0.0624 
@<TRIPOS>BOND
     1    1    2 1    
     2    1   72 1    
     3    1   73 1    
     4    1   74 1    
     5    2    3 2    
     6    2    4 am   BACKBONE|DICT|INTERRES
     7    4    5 1    
     8    4   75 1    
     9    5    6 1    
    10    5   35 1    
    11    5   76 1    
    12    6    7 1    
    13    6   77 1    
    14    6   78 1    
    15    7    8 1    
    16    8    9 1    
    17    8   79 1    
    18    8   80 1    
    19    9   10 ar   
    20    9   14 ar   
    21   10   11 ar   
    22   10   81 1    
    23   11   12 ar   
    24   11   71 1    
    25   12   13 ar   
    26   12   82 1    
    27   13   14 ar   
    28   13   15 1    
    29   14   83 1    
    30   15   16 1    
    31   15   84 1    
    32   15   85 1    
    33   16   17 1    
    34   17   18 1    
    35   17   86 1    
    36   17   87 1    
    37   18   19 1    
    38   18   37 1    
    39   18   88 1    
    40   19   20 am   BACKBONE|DICT|INTERRES
    41   19   89 1    
    42   20   21 2    
    43   20   22 1    
    44   22   23 1    
    45   22   24 1    
    46   22   90 1    
    47   23   91 1    
    48   23   92 1    
    49   23   93 1    
    50   24   25 am   BACKBONE|DICT|INTERRES
    51   24   94 1    
    52   25   26 2    
    53   25   27 1    
    54   27   28 1    
    55   27   29 1    
    56   27   95 1    
    57   28   96 1    
    58   28   97 1    
    59   28   98 1    
    60   29   30 am   BACKBONE|DICT|INTERRES
    61   29   99 1    
    62   30   31 2    
    63   30   32 1    
    64   32   33 1    
    65   32   34 1    
    66   32  100 1    
    67   33  101 1    
    68   33  102 1    
    69   33  103 1    
    70   34   35 am   BACKBONE|DICT|INTERRES
    71   34  104 1    
    72   35   36 2    
    73   37   38 2    
    74   37   39 am   BACKBONE|DICT|INTERRES
    75   39   40 1    
    76   39  105 1    
    77   40   41 1    
    78   40   42 1    
    79   40  106 1    
    80   41  107 1    
    81   41  108 1    
    82   41  109 1    
    83   42   43 2    
    84   42   44 am   BACKBONE|DICT|INTERRES
    85   44   45 1    
    86   44  110 1    
    87   45   46 1    
    88   45   47 1    
    89   45  111 1    
    90   46  112 1    
    91   46  113 1    
    92   46  114 1    
    93   47   48 2    
    94   47   49 am   BACKBONE|DICT|INTERRES
    95   49   50 1    
    96   49  115 1    
    97   50   51 1    
    98   50   52 1    
    99   50  116 1    
   100   51  117 1    
   101   51  118 1    
   102   51  119 1    
   103   52   53 2    
   104   52   54 am   BACKBONE|DICT|INTERRES
   105   54   55 1    
   106   54  120 1    
   107   55   56 1    
   108   55   57 1    
   109   55  121 1    
   110   56  122 1    
   111   56  123 1    
   112   56  124 1    
   113   57   58 2    
   114   57   59 am   BACKBONE|DICT|INTERRES
   115   59   60 1    
   116   59  125 1    
   117   60   61 1    
   118   60   62 1    
   119   60  126 1    
   120   61  127 1    
   121   61  128 1    
   122   61  129 1    
   123   62   63 2    
   124   62   64 am   BACKBONE|DICT|INTERRES
   125   64   65 1    
   126   64  130 1    
   127   65   66 1    
   128   65   69 1    
   129   65  131 1    
   130   66   67 am   BACKBONE|DICT|INTERRES
   131   66   68 2    
   132   67  132 1    
   133   67  133 1    
   134   69   70 1    
   135   69  134 1    
   136   69  135 1    
   137   70   71 1    
   138   71  136 1    
   139   71  137 1    
@<TRIPOS>SUBSTRUCTURE
     1 UNK         1 GROUP             0       ****    0 ROOT    
