@<TRIPOS>MOLECULE
3R137
137   139    1
SMALL
USER_CHARGES


@<TRIPOS>ATOM
      1 CA         29.1780    1.9698   -0.3648 C.3       0 UNK        -0.2020 
      2 C          28.4012    0.6629   -0.4112 C.2       0 UNK         0.4855 
      3 O          27.4306    0.5031    0.3275 O.2       0 UNK        -0.5197 
      4 N          28.8060   -0.2580   -1.2960 N.am      1 UNK        -0.4892 
      5 CA         28.2995   -1.6307   -1.4994 C.3       1 UNK         0.0835 
      6 C6         28.4716   -2.5368   -0.2510 C.3       12 UNK        -0.0855 
      7 S7         30.2170   -2.6336    0.2809 S.3       12 UNK        -0.2931 
      8 C8         30.7383   -4.2355   -0.4101 C.3       12 UNK         0.0378 
      9 C9         30.6502   -4.2735   -1.9307 C.ar      12 UNK        -0.0802 
     10 C10        31.6110   -3.6256   -2.7127 C.ar      12 UNK        -0.0944 
     11 C11        31.5586   -3.7001   -4.1081 C.ar      12 UNK        -0.0787 
     12 C12        30.5317   -4.4268   -4.7203 C.ar      12 UNK        -0.0862 
     13 C13        29.5589   -5.0789   -3.9500 C.ar      12 UNK        -0.0733 
     14 C14        29.6270   -4.9920   -2.5562 C.ar      12 UNK        -0.0832 
     15 C15        28.4767   -5.9588   -4.5767 C.3       12 UNK         0.0240 
     16 S16        27.9154   -5.4380   -6.2303 S.3       12 UNK        -0.2522 
     17 C17        26.8061   -4.0519   -5.8130 C.3       12 UNK        -0.0967 
     18 CA         26.1353   -3.4495   -7.0785 C.3       5 UNK         0.0660 
     19 N          24.8294   -2.8778   -6.7572 N.am      5 UNK        -0.4015 
     20 C          23.6609   -3.2459   -7.3024 C.2       4 UNK         0.4946 
     21 O          23.5480   -4.1456   -8.1370 O.2       4 UNK        -0.5353 
     22 CA         22.3851   -2.5128   -6.8384 C.3       4 UNK         0.0277 
     23 CB         21.5640   -3.4093   -5.8963 C.3       4 UNK        -0.1981 
     24 N          22.6624   -1.2462   -6.1618 N.am      4 UNK        -0.4209 
     25 C          23.0784   -0.1278   -6.7705 C.2       3 UNK         0.4942 
     26 O          23.1001    0.0100   -7.9933 O.2       3 UNK        -0.5208 
     27 CA         23.5680    1.0261   -5.8709 C.3       3 UNK         0.0250 
     28 CB         22.6025    2.2204   -5.9461 C.3       3 UNK        -0.1990 
     29 N          23.7750    0.6626   -4.4612 N.am      3 UNK        -0.4232 
     30 C          24.6979   -0.2002   -4.0118 C.2       2 UNK         0.4993 
     31 O          25.4499   -0.8307   -4.7569 O.2       2 UNK        -0.5286 
     32 CA         24.7220   -0.4236   -2.4899 C.3       2 UNK         0.0209 
     33 CB         23.7356   -1.5364   -2.0801 C.3       2 UNK        -0.1931 
     34 N          26.0707   -0.6640   -1.9595 N.am      2 UNK        -0.4546 
     35 C          26.8679   -1.7355   -2.0800 C.2       1 UNK         0.5154 
     36 O          26.5341   -2.7866   -2.6277 O.2       1 UNK        -0.5181 
     37 C          27.0202   -2.3903   -7.7668 C.2       5 UNK         0.5014 
     38 O          26.5717   -1.2775   -8.0583 O.2       5 UNK        -0.5248 
     39 N          28.2880   -2.7600   -7.9979 N.am      6 UNK        -0.4434 
     40 CA         29.3340   -1.9586   -8.6433 C.3       6 UNK         0.0363 
     41 CB         30.6055   -2.8100   -8.7820 C.3       6 UNK        -0.1936 
     42 C          29.6600   -0.6298   -7.9392 C.2       6 UNK         0.5081 
     43 O          30.2735    0.2399   -8.5576 O.2       6 UNK        -0.5248 
     44 N          29.2204   -0.4595   -6.6848 N.am      7 UNK        -0.4718 
     45 CA         29.3059    0.7859   -5.9181 C.3       7 UNK         0.0273 
     46 CB         28.8180    0.5359   -4.4892 C.3       7 UNK        -0.1935 
     47 C          28.5611    1.9705   -6.5617 C.2       7 UNK         0.5018 
     48 O          28.9237    3.1144   -6.2881 O.2       7 UNK        -0.5186 
     49 N          27.6136    1.6938   -7.4729 N.am      8 UNK        -0.4240 
     50 CA         27.0208    2.6781   -8.3875 C.3       8 UNK         0.0235 
     51 CB         25.9359    1.9932   -9.2320 C.3       8 UNK        -0.2000 
     52 C          28.0487    3.3694   -9.3096 C.2       8 UNK         0.4941 
     53 O          27.8189    4.5092   -9.7142 O.2       8 UNK        -0.5273 
     54 N          29.1660    2.6869   -9.5974 N.am      9 UNK        -0.4262 
     55 CA         30.3332    3.2012  -10.3148 C.3       9 UNK         0.0264 
     56 CB         30.5846    2.3120  -11.5468 C.3       9 UNK        -0.1955 
     57 C          31.5613    3.2526   -9.3828 C.2       9 UNK         0.5031 
     58 O          32.6921    3.1256   -9.8577 O.2       9 UNK        -0.5390 
     59 N          31.3240    3.4009   -8.0679 N.am      10 UNK        -0.4204 
     60 CA         32.3079    3.4618   -6.9777 C.3       10 UNK         0.0237 
     61 CB         33.1020    4.7836   -7.0503 C.3       10 UNK        -0.1985 
     62 C          33.2280    2.2258   -6.8757 C.2       10 UNK         0.4970 
     63 O          34.3453    2.3482   -6.3708 O.2       10 UNK        -0.4914 
     64 N          32.7542    1.0686   -7.3613 N.am      11 UNK        -0.4285 
     65 CA         33.5025   -0.1926   -7.4882 C.3       11 UNK         0.1007 
     66 C          34.6871   -0.1255   -8.5023 C.2       11 UNK         0.5703 
     67 N          34.7257    0.8409   -9.4146 N.am      11 UNK        -0.7361 
     68 O          35.5692   -0.9811   -8.4920 O.2       11 UNK        -0.4986 
     69 C69        33.8861   -0.8198   -6.1151 C.3       12 UNK        -0.0947 
     70 S70        32.4251   -1.2533   -5.1054 S.3       12 UNK        -0.2240 
     71 C71        32.6501   -3.0516   -4.9484 C.3       12 UNK         0.0194 
     72 H72        29.5984    2.1190    0.6294 H         1 UNK         0.0906 
     73 H73        29.9965    1.9859   -1.0842 H         1 UNK         0.0906 
     74 H74        28.5171    2.8078   -0.5844 H         1 UNK         0.0906 
     75 H75        29.6123   -0.0370   -1.8626 H         1 UNK         0.3140 
     76 H76        28.9338   -2.0460   -2.2842 H         1 UNK         0.1085 
     77 H77        28.1021   -3.5453   -0.4454 H         1 UNK         0.0836 
     78 H78        27.8770   -2.1588    0.5821 H         1 UNK         0.0836 
     79 H79        30.1371   -5.0304    0.0341 H         1 UNK         0.0731 
     80 H80        31.7675   -4.4303   -0.1054 H         1 UNK         0.0731 
     81 H81        32.4101   -3.0757   -2.2340 H         1 UNK         0.1312 
     82 H82        30.5131   -4.5099   -5.7973 H         1 UNK         0.1406 
     83 H83        28.8919   -5.5082   -1.9533 H         1 UNK         0.1631 
     84 H84        27.6079   -6.0207   -3.9191 H         1 UNK         0.0717 
     85 H85        28.8727   -6.9718   -4.6568 H         1 UNK         0.0717 
     86 H86        26.0443   -4.4466   -5.1379 H         1 UNK         0.0934 
     87 H87        27.3430   -3.2968   -5.2339 H         1 UNK         0.0934 
     88 H88        25.9996   -4.2468   -7.8122 H         1 UNK         0.0739 
     89 H89        24.8624   -2.0866   -6.1191 H         1 UNK         0.3093 
     90 H90        21.7846   -2.3060   -7.7269 H         1 UNK         0.0818 
     91 H91        22.1138   -3.6500   -4.9854 H         1 UNK         0.0819 
     92 H92        20.6273   -2.9314   -5.6086 H         1 UNK         0.0819 
     93 H93        21.3079   -4.3528   -6.3805 H         1 UNK         0.0819 
     94 H94        22.6570   -1.2599   -5.1530 H         1 UNK         0.3041 
     95 H95        24.5344    1.3441   -6.2676 H         1 UNK         0.0784 
     96 H96        22.4606    2.5443   -6.9783 H         1 UNK         0.0793 
     97 H97        21.6194    1.9707   -5.5451 H         1 UNK         0.0793 
     98 H98        22.9858    3.0775   -5.3919 H         1 UNK         0.0793 
     99 H99        23.1735    1.1235   -3.7926 H         1 UNK         0.3024 
    100 H100       24.3927    0.5027   -2.0158 H         1 UNK         0.1171 
    101 H101       23.9459   -2.4780   -2.5886 H         1 UNK         0.0786 
    102 H102       22.7100   -1.2606   -2.3278 H         1 UNK         0.0786 
    103 H103       23.7693   -1.7208   -1.0063 H         1 UNK         0.0786 
    104 H104       26.4614    0.0978   -1.4163 H         1 UNK         0.2977 
    105 H105       28.5550   -3.6903   -7.7014 H         1 UNK         0.3127 
    106 H106       28.9771   -1.7073   -9.6441 H         1 UNK         0.0770 
    107 H107       31.0314   -3.0596   -7.8099 H         1 UNK         0.0814 
    108 H108       31.3707   -2.2766   -9.3474 H         1 UNK         0.0814 
    109 H109       30.4077   -3.7409   -9.3138 H         1 UNK         0.0814 
    110 H110       28.7175   -1.2211   -6.2547 H         1 UNK         0.2983 
    111 H111       30.3596    1.0631   -5.8641 H         1 UNK         0.0947 
    112 H112       27.7691    0.2456   -4.4660 H         1 UNK         0.0806 
    113 H113       28.9244    1.4318   -3.8760 H         1 UNK         0.0806 
    114 H114       29.4009   -0.2566   -4.0216 H         1 UNK         0.0806 
    115 H115       27.3616    0.7223   -7.6252 H         1 UNK         0.3000 
    116 H116       26.5503    3.4540   -7.7800 H         1 UNK         0.0850 
    117 H117       25.4650    2.7004   -9.9163 H         1 UNK         0.0810 
    118 H118       25.1482    1.5796   -8.6052 H         1 UNK         0.0810 
    119 H119       26.3450    1.1787   -9.8314 H         1 UNK         0.0810 
    120 H120       29.2885    1.7557   -9.2071 H         1 UNK         0.3040 
    121 H121       30.1536    4.2220  -10.6576 H         1 UNK         0.0766 
    122 H122       29.7079    2.2743  -12.1934 H         1 UNK         0.0812 
    123 H123       30.8335    1.2897  -11.2585 H         1 UNK         0.0812 
    124 H124       31.4114    2.6942  -12.1470 H         1 UNK         0.0812 
    125 H125       30.3580    3.4751   -7.7665 H         1 UNK         0.3205 
    126 H126       31.7306    3.4768   -6.0521 H         1 UNK         0.0754 
    127 H127       33.7331    4.9140   -6.1703 H         1 UNK         0.0769 
    128 H128       32.4352    5.6447   -7.0966 H         1 UNK         0.0769 
    129 H129       33.7523    4.8153   -7.9253 H         1 UNK         0.0769 
    130 H130       31.8330    1.0504   -7.7878 H         1 UNK         0.2981 
    131 H131       32.8066   -0.8847   -7.9603 H         1 UNK         0.0541 
    132 H132       34.0062    1.5545   -9.4535 H         1 UNK         0.3459 
    133 H133       35.4892    0.8650  -10.0711 H         1 UNK         0.3459 
    134 H134       34.4814   -1.7221   -6.2623 H         1 UNK         0.0612 
    135 H135       34.5180   -0.1432   -5.5391 H         1 UNK         0.0612 
    136 H136       33.6212   -3.2515   -4.4928 H         1 UNK         0.0624 
    137 H137       32.6804   -3.4962   -5.9441 H         1 UNK         0.0624 
@<TRIPOS>BOND
     1    1    2 1    
     2    1   72 1    
     3    1   73 1    
     4    1   74 1    
     5    2    3 2    
     6    2    4 am   BACKBONE|DICT|INTERRES
     7    4    5 1    
     8    4   75 1    
     9    5    6 1    
    10    5   35 1    
    11    5   76 1    
    12    6    7 1    
    13    6   77 1    
    14    6   78 1    
    15    7    8 1    
    16    8    9 1    
    17    8   79 1    
    18    8   80 1    
    19    9   10 ar   
    20    9   14 ar   
    21   10   11 ar   
    22   10   81 1    
    23   11   12 ar   
    24   11   71 1    
    25   12   13 ar   
    26   12   82 1    
    27   13   14 ar   
    28   13   15 1    
    29   14   83 1    
    30   15   16 1    
    31   15   84 1    
    32   15   85 1    
    33   16   17 1    
    34   17   18 1    
    35   17   86 1    
    36   17   87 1    
    37   18   19 1    
    38   18   37 1    
    39   18   88 1    
    40   19   20 am   BACKBONE|DICT|INTERRES
    41   19   89 1    
    42   20   21 2    
    43   20   22 1    
    44   22   23 1    
    45   22   24 1    
    46   22   90 1    
    47   23   91 1    
    48   23   92 1    
    49   23   93 1    
    50   24   25 am   BACKBONE|DICT|INTERRES
    51   24   94 1    
    52   25   26 2    
    53   25   27 1    
    54   27   28 1    
    55   27   29 1    
    56   27   95 1    
    57   28   96 1    
    58   28   97 1    
    59   28   98 1    
    60   29   30 am   BACKBONE|DICT|INTERRES
    61   29   99 1    
    62   30   31 2    
    63   30   32 1    
    64   32   33 1    
    65   32   34 1    
    66   32  100 1    
    67   33  101 1    
    68   33  102 1    
    69   33  103 1    
    70   34   35 am   BACKBONE|DICT|INTERRES
    71   34  104 1    
    72   35   36 2    
    73   37   38 2    
    74   37   39 am   BACKBONE|DICT|INTERRES
    75   39   40 1    
    76   39  105 1    
    77   40   41 1    
    78   40   42 1    
    79   40  106 1    
    80   41  107 1    
    81   41  108 1    
    82   41  109 1    
    83   42   43 2    
    84   42   44 am   BACKBONE|DICT|INTERRES
    85   44   45 1    
    86   44  110 1    
    87   45   46 1    
    88   45   47 1    
    89   45  111 1    
    90   46  112 1    
    91   46  113 1    
    92   46  114 1    
    93   47   48 2    
    94   47   49 am   BACKBONE|DICT|INTERRES
    95   49   50 1    
    96   49  115 1    
    97   50   51 1    
    98   50   52 1    
    99   50  116 1    
   100   51  117 1    
   101   51  118 1    
   102   51  119 1    
   103   52   53 2    
   104   52   54 am   BACKBONE|DICT|INTERRES
   105   54   55 1    
   106   54  120 1    
   107   55   56 1    
   108   55   57 1    
   109   55  121 1    
   110   56  122 1    
   111   56  123 1    
   112   56  124 1    
   113   57   58 2    
   114   57   59 am   BACKBONE|DICT|INTERRES
   115   59   60 1    
   116   59  125 1    
   117   60   61 1    
   118   60   62 1    
   119   60  126 1    
   120   61  127 1    
   121   61  128 1    
   122   61  129 1    
   123   62   63 2    
   124   62   64 am   BACKBONE|DICT|INTERRES
   125   64   65 1    
   126   64  130 1    
   127   65   66 1    
   128   65   69 1    
   129   65  131 1    
   130   66   67 am   BACKBONE|DICT|INTERRES
   131   66   68 2    
   132   67  132 1    
   133   67  133 1    
   134   69   70 1    
   135   69  134 1    
   136   69  135 1    
   137   70   71 1    
   138   71  136 1    
   139   71  137 1    
@<TRIPOS>SUBSTRUCTURE
     1 UNK         1 GROUP             0       ****    0 ROOT    
