@<TRIPOS>MOLECULE
3R137
137   139    1
SMALL
USER_CHARGES


@<TRIPOS>ATOM
      1 CA         28.6302    0.3327   -0.7670 C.3       0 UNK        -0.2020 
      2 C          28.1440   -0.9954   -1.3247 C.2       0 UNK         0.4855 
      3 O          27.5918   -1.0316   -2.4249 O.2       0 UNK        -0.5197 
      4 N          28.3339   -2.0867   -0.5708 N.am      1 UNK        -0.4892 
      5 CA         27.9894   -3.4616   -0.9545 C.3       1 UNK         0.0835 
      6 C6         28.7792   -4.5233   -0.1400 C.3       12 UNK        -0.0855 
      7 S7         30.5877   -4.2777   -0.1293 S.3       12 UNK        -0.2931 
      8 C8         31.0938   -5.0602   -1.6973 C.3       12 UNK         0.0378 
      9 C9         30.8018   -4.1710   -2.8992 C.ar      12 UNK        -0.0802 
     10 C10        31.3690   -2.8940   -2.9740 C.ar      12 UNK        -0.0944 
     11 C11        31.1077   -2.0567   -4.0609 C.ar      12 UNK        -0.0787 
     12 C12        30.2615   -2.5130   -5.0761 C.ar      12 UNK        -0.0862 
     13 C13        29.7116   -3.7966   -5.0356 C.ar      12 UNK        -0.0733 
     14 C14        29.9832   -4.6235   -3.9410 C.ar      12 UNK        -0.0832 
     15 C15        28.8743   -4.2978   -6.2065 C.3       12 UNK         0.0240 
     16 S16        27.1108   -4.5240   -5.8072 S.3       12 UNK        -0.2522 
     17 C17        26.5848   -2.8680   -5.2622 C.3       12 UNK        -0.0967 
     18 CA         26.2812   -1.8779   -6.4220 C.3       5 UNK         0.0660 
     19 N          25.0129   -1.1624   -6.2163 N.am      5 UNK        -0.4015 
     20 C          24.5387   -0.1810   -7.0002 C.2       4 UNK         0.4946 
     21 O          25.0458    0.1281   -8.0782 O.2       4 UNK        -0.5353 
     22 CA         23.3513    0.6519   -6.4823 C.3       4 UNK         0.0277 
     23 CB         22.0597    0.2525   -7.2124 C.3       4 UNK        -0.1981 
     24 N          23.1313    0.5758   -5.0345 N.am      4 UNK        -0.4209 
     25 C          24.0145    0.8792   -4.0706 C.2       3 UNK         0.4942 
     26 O          25.1500    1.3038   -4.2866 O.2       3 UNK        -0.5208 
     27 CA         23.5721    0.6078   -2.6201 C.3       3 UNK         0.0250 
     28 CB         22.0542    0.7980   -2.4030 C.3       3 UNK        -0.1990 
     29 N          23.9928   -0.7124   -2.1262 N.am      3 UNK        -0.4232 
     30 C          23.7797   -1.9096   -2.6956 C.2       2 UNK         0.4993 
     31 O          23.2679   -2.0690   -3.8053 O.2       2 UNK        -0.5286 
     32 CA         24.2713   -3.1293   -1.9081 C.3       2 UNK         0.0209 
     33 CB         23.8618   -4.4718   -2.5540 C.3       2 UNK        -0.1931 
     34 N          25.7221   -3.0438   -1.7749 N.am      2 UNK        -0.4546 
     35 C          26.4658   -3.7052   -0.8851 C.2       1 UNK         0.5154 
     36 O          25.9922   -4.4585   -0.0316 O.2       1 UNK        -0.5181 
     37 C          27.4650   -0.9056   -6.6303 C.2       5 UNK         0.5014 
     38 O          28.2429   -1.0850   -7.5671 O.2       5 UNK        -0.5248 
     39 N          27.5389    0.1379   -5.7900 N.am      6 UNK        -0.4434 
     40 CA         28.5647    1.1816   -5.8368 C.3       6 UNK         0.0363 
     41 CB         28.6202    1.8823   -4.4698 C.3       6 UNK        -0.1936 
     42 C          28.3734    2.2071   -6.9712 C.2       6 UNK         0.5081 
     43 O          29.2552    3.0438   -7.1649 O.2       6 UNK        -0.5248 
     44 N          27.2408    2.1529   -7.6857 N.am      7 UNK        -0.4718 
     45 CA         27.0080    2.9092   -8.9175 C.3       7 UNK         0.0273 
     46 CB         25.5522    3.4038   -8.9569 C.3       7 UNK        -0.1935 
     47 C          27.3295    2.0484  -10.1501 C.2       7 UNK         0.5018 
     48 O          27.8452    2.5789  -11.1346 O.2       7 UNK        -0.5186 
     49 N          27.0156    0.7457  -10.0798 N.am      8 UNK        -0.4240 
     50 CA         27.2986   -0.2484  -11.1154 C.3       8 UNK         0.0235 
     51 CB         26.5241   -1.5415  -10.8091 C.3       8 UNK        -0.2000 
     52 C          28.8024   -0.5304  -11.2702 C.2       8 UNK         0.4941 
     53 O          29.3091   -0.4983  -12.3931 O.2       8 UNK        -0.5273 
     54 N          29.4848   -0.7984  -10.1499 N.am      9 UNK        -0.4262 
     55 CA         30.9374   -0.9668  -10.0843 C.3       9 UNK         0.0264 
     56 CB         31.2686   -1.9501   -8.9513 C.3       9 UNK        -0.1955 
     57 C          31.6280    0.3886   -9.8566 C.2       9 UNK         0.5031 
     58 O          30.9850    1.3398   -9.4094 O.2       9 UNK        -0.5390 
     59 N          32.9303    0.4540  -10.1680 N.am      10 UNK        -0.4204 
     60 CA         33.7533    1.6596  -10.0189 C.3       10 UNK         0.0237 
     61 CB         35.0798    1.4845  -10.7783 C.3       10 UNK        -0.1985 
     62 C          34.0035    2.0353   -8.5480 C.2       10 UNK         0.4970 
     63 O          33.7850    3.1886   -8.1757 O.2       10 UNK        -0.4914 
     64 N          34.4537    1.0530   -7.7530 N.am      11 UNK        -0.4285 
     65 CA         34.6881    1.1447   -6.2972 C.3       11 UNK         0.1007 
     66 C          35.7549    2.1962   -5.8584 C.2       11 UNK         0.5703 
     67 N          36.6706    2.6038   -6.7296 N.am      11 UNK        -0.7361 
     68 O          35.7826    2.6241   -4.7065 O.2       11 UNK        -0.4986 
     69 C69        33.3587    1.2383   -5.4921 C.3       12 UNK        -0.0947 
     70 S70        32.3141   -0.2240   -5.7952 S.3       12 UNK        -0.2240 
     71 C71        31.7450   -0.6697   -4.1207 C.3       12 UNK         0.0194 
     72 H72        29.5135    0.6646   -1.3115 H         1 UNK         0.0906 
     73 H73        27.8562    1.0918   -0.8764 H         1 UNK         0.0906 
     74 H74        28.8875    0.2606    0.2894 H         1 UNK         0.0906 
     75 H75        28.7888   -1.9961    0.3265 H         1 UNK         0.3140 
     76 H76        28.2636   -3.5864   -2.0030 H         1 UNK         0.1085 
     77 H77        28.4541   -4.5172    0.9023 H         1 UNK         0.0836 
     78 H78        28.5642   -5.5265   -0.5132 H         1 UNK         0.0836 
     79 H79        32.1667   -5.2537   -1.6608 H         1 UNK         0.0731 
     80 H80        30.6103   -6.0334   -1.7950 H         1 UNK         0.0731 
     81 H81        32.0117   -2.5511   -2.1745 H         1 UNK         0.1312 
     82 H82        30.0537   -1.8720   -5.9179 H         1 UNK         0.1406 
     83 H83        29.5578   -5.6174   -3.9058 H         1 UNK         0.1631 
     84 H84        29.2769   -5.2547   -6.5412 H         1 UNK         0.0717 
     85 H85        28.9605   -3.6262   -7.0617 H         1 UNK         0.0717 
     86 H86        25.6830   -3.0405   -4.6781 H         1 UNK         0.0934 
     87 H87        27.3080   -2.4746   -4.5462 H         1 UNK         0.0934 
     88 H88        26.1566   -2.4389   -7.3505 H         1 UNK         0.0739 
     89 H89        24.4950   -1.3798   -5.3716 H         1 UNK         0.3093 
     90 H90        23.5709    1.6949   -6.7191 H         1 UNK         0.0818 
     91 H91        21.2299    0.9046   -6.9392 H         1 UNK         0.0819 
     92 H92        22.1835    0.3262   -8.2941 H         1 UNK         0.0819 
     93 H93        21.7705   -0.7748   -6.9866 H         1 UNK         0.0819 
     94 H94        22.2540    0.1709   -4.7400 H         1 UNK         0.3041 
     95 H95        24.0860    1.3481   -2.0047 H         1 UNK         0.0784 
     96 H96        21.7179    1.7617   -2.7887 H         1 UNK         0.0793 
     97 H97        21.4624    0.0209   -2.8879 H         1 UNK         0.0793 
     98 H98        21.8088    0.7776   -1.3411 H         1 UNK         0.0793 
     99 H99        24.4875   -0.6988   -1.2449 H         1 UNK         0.3024 
    100 H100       23.8180   -3.0745   -0.9156 H         1 UNK         0.1171 
    101 H101       22.7817   -4.5217   -2.6979 H         1 UNK         0.0786 
    102 H102       24.3278   -4.6142   -3.5292 H         1 UNK         0.0786 
    103 H103       24.1390   -5.3189   -1.9268 H         1 UNK         0.0786 
    104 H104       26.1980   -2.3540   -2.3532 H         1 UNK         0.2977 
    105 H105       26.8180    0.2586   -5.0851 H         1 UNK         0.3127 
    106 H106       29.5274    0.6987   -6.0103 H         1 UNK         0.0770 
    107 H107       27.6928    2.4130   -4.2517 H         1 UNK         0.0814 
    108 H108       29.4317    2.6102   -4.4353 H         1 UNK         0.0814 
    109 H109       28.7928    1.1666   -3.6673 H         1 UNK         0.0814 
    110 H110       26.5638    1.4327   -7.4665 H         1 UNK         0.2983 
    111 H111       27.6587    3.7860   -8.9476 H         1 UNK         0.0947 
    112 H112       25.3775    4.0183   -9.8410 H         1 UNK         0.0806 
    113 H113       25.3181    4.0156   -8.0857 H         1 UNK         0.0806 
    114 H114       24.8384    2.5808   -8.9904 H         1 UNK         0.0806 
    115 H115       26.5118    0.4155   -9.2615 H         1 UNK         0.3000 
    116 H116       26.9346    0.1477  -12.0659 H         1 UNK         0.0850 
    117 H117       26.6991   -2.2933  -11.5798 H         1 UNK         0.0810 
    118 H118       25.4499   -1.3593  -10.7700 H         1 UNK         0.0810 
    119 H119       26.8220   -1.9761   -9.8542 H         1 UNK         0.0810 
    120 H120       28.9958   -0.7780   -9.2566 H         1 UNK         0.3040 
    121 H121       31.2999   -1.3879  -11.0245 H         1 UNK         0.0766 
    122 H122       32.3431   -2.1140   -8.8641 H         1 UNK         0.0812 
    123 H123       30.8029   -2.9213   -9.1194 H         1 UNK         0.0812 
    124 H124       30.9168   -1.5754   -7.9921 H         1 UNK         0.0812 
    125 H125       33.3868   -0.3696  -10.5334 H         1 UNK         0.3205 
    126 H126       33.2135    2.4897  -10.4804 H         1 UNK         0.0754 
    127 H127       35.7026    2.3754  -10.6848 H         1 UNK         0.0769 
    128 H128       34.9073    1.3244  -11.8429 H         1 UNK         0.0769 
    129 H129       35.6593    0.6403  -10.4027 H         1 UNK         0.0769 
    130 H130       34.6123    0.1434   -8.1588 H         1 UNK         0.2981 
    131 H131       35.1496    0.1942   -6.0270 H         1 UNK         0.0541 
    132 H132       37.3645    3.2741   -6.4386 H         1 UNK         0.3459 
    133 H133       36.6686    2.2548   -7.6742 H         1 UNK         0.3459 
    134 H134       32.7989    2.1350   -5.7623 H         1 UNK         0.0612 
    135 H135       33.5565    1.3092   -4.4216 H         1 UNK         0.0612 
    136 H136       31.0236    0.0716   -3.7769 H         1 UNK         0.0624 
    137 H137       32.5962   -0.6237   -3.4399 H         1 UNK         0.0624 
@<TRIPOS>BOND
     1    1    2 1    
     2    1   72 1    
     3    1   73 1    
     4    1   74 1    
     5    2    3 2    
     6    2    4 am   BACKBONE|DICT|INTERRES
     7    4    5 1    
     8    4   75 1    
     9    5    6 1    
    10    5   35 1    
    11    5   76 1    
    12    6    7 1    
    13    6   77 1    
    14    6   78 1    
    15    7    8 1    
    16    8    9 1    
    17    8   79 1    
    18    8   80 1    
    19    9   10 ar   
    20    9   14 ar   
    21   10   11 ar   
    22   10   81 1    
    23   11   12 ar   
    24   11   71 1    
    25   12   13 ar   
    26   12   82 1    
    27   13   14 ar   
    28   13   15 1    
    29   14   83 1    
    30   15   16 1    
    31   15   84 1    
    32   15   85 1    
    33   16   17 1    
    34   17   18 1    
    35   17   86 1    
    36   17   87 1    
    37   18   19 1    
    38   18   37 1    
    39   18   88 1    
    40   19   20 am   BACKBONE|DICT|INTERRES
    41   19   89 1    
    42   20   21 2    
    43   20   22 1    
    44   22   23 1    
    45   22   24 1    
    46   22   90 1    
    47   23   91 1    
    48   23   92 1    
    49   23   93 1    
    50   24   25 am   BACKBONE|DICT|INTERRES
    51   24   94 1    
    52   25   26 2    
    53   25   27 1    
    54   27   28 1    
    55   27   29 1    
    56   27   95 1    
    57   28   96 1    
    58   28   97 1    
    59   28   98 1    
    60   29   30 am   BACKBONE|DICT|INTERRES
    61   29   99 1    
    62   30   31 2    
    63   30   32 1    
    64   32   33 1    
    65   32   34 1    
    66   32  100 1    
    67   33  101 1    
    68   33  102 1    
    69   33  103 1    
    70   34   35 am   BACKBONE|DICT|INTERRES
    71   34  104 1    
    72   35   36 2    
    73   37   38 2    
    74   37   39 am   BACKBONE|DICT|INTERRES
    75   39   40 1    
    76   39  105 1    
    77   40   41 1    
    78   40   42 1    
    79   40  106 1    
    80   41  107 1    
    81   41  108 1    
    82   41  109 1    
    83   42   43 2    
    84   42   44 am   BACKBONE|DICT|INTERRES
    85   44   45 1    
    86   44  110 1    
    87   45   46 1    
    88   45   47 1    
    89   45  111 1    
    90   46  112 1    
    91   46  113 1    
    92   46  114 1    
    93   47   48 2    
    94   47   49 am   BACKBONE|DICT|INTERRES
    95   49   50 1    
    96   49  115 1    
    97   50   51 1    
    98   50   52 1    
    99   50  116 1    
   100   51  117 1    
   101   51  118 1    
   102   51  119 1    
   103   52   53 2    
   104   52   54 am   BACKBONE|DICT|INTERRES
   105   54   55 1    
   106   54  120 1    
   107   55   56 1    
   108   55   57 1    
   109   55  121 1    
   110   56  122 1    
   111   56  123 1    
   112   56  124 1    
   113   57   58 2    
   114   57   59 am   BACKBONE|DICT|INTERRES
   115   59   60 1    
   116   59  125 1    
   117   60   61 1    
   118   60   62 1    
   119   60  126 1    
   120   61  127 1    
   121   61  128 1    
   122   61  129 1    
   123   62   63 2    
   124   62   64 am   BACKBONE|DICT|INTERRES
   125   64   65 1    
   126   64  130 1    
   127   65   66 1    
   128   65   69 1    
   129   65  131 1    
   130   66   67 am   BACKBONE|DICT|INTERRES
   131   66   68 2    
   132   67  132 1    
   133   67  133 1    
   134   69   70 1    
   135   69  134 1    
   136   69  135 1    
   137   70   71 1    
   138   71  136 1    
   139   71  137 1    
@<TRIPOS>SUBSTRUCTURE
     1 UNK         1 GROUP             0       ****    0 ROOT    
