@<TRIPOS>MOLECULE
3R137
137   139    1
SMALL
USER_CHARGES


@<TRIPOS>ATOM
      1 CA         27.5910   -6.5279    0.6327 C.3       0 UNK        -0.2020 
      2 C          27.5099   -5.1683   -0.0437 C.2       0 UNK         0.4855 
      3 O          27.5319   -5.0998   -1.2723 O.2       0 UNK        -0.5197 
      4 N          27.4136   -4.0927    0.7509 N.am      1 UNK        -0.4892 
      5 CA         27.3354   -2.6714    0.3671 C.3       1 UNK         0.0835 
      6 C6         28.5463   -2.1595   -0.4562 C.3       12 UNK        -0.0855 
      7 S7         30.1282   -2.2976    0.4495 S.3       12 UNK        -0.2931 
      8 C8         30.9739   -3.6655   -0.4123 C.3       12 UNK         0.0378 
      9 C9         31.2302   -3.3508   -1.8793 C.ar      12 UNK        -0.0802 
     10 C10        32.1726   -2.3808   -2.2385 C.ar      12 UNK        -0.0944 
     11 C11        32.3750   -2.0576   -3.5832 C.ar      12 UNK        -0.0787 
     12 C12        31.6508   -2.7317   -4.5676 C.ar      12 UNK        -0.0862 
     13 C13        30.6921   -3.6874   -4.2222 C.ar      12 UNK        -0.0733 
     14 C14        30.4995   -4.0070   -2.8761 C.ar      12 UNK        -0.0832 
     15 C15        29.8277   -4.3275   -5.3018 C.3       12 UNK         0.0240 
     16 S16        28.1044   -3.7204   -5.2561 S.3       12 UNK        -0.2522 
     17 C17        28.3157   -1.9083   -5.3370 C.3       12 UNK        -0.0967 
     18 CA         27.6110   -1.2550   -6.5470 C.3       5 UNK         0.0660 
     19 N          26.1570   -1.4365   -6.5230 N.am      5 UNK        -0.4015 
     20 C          25.3382   -1.1231   -7.5391 C.2       4 UNK         0.4946 
     21 O          25.7256   -0.6702   -8.6158 O.2       4 UNK        -0.5353 
     22 CA         23.8276   -1.2980   -7.3063 C.3       4 UNK         0.0277 
     23 CB         23.3996   -2.7411   -7.6165 C.3       4 UNK        -0.1981 
     24 N          23.4051   -0.9426   -5.9501 N.am      4 UNK        -0.4209 
     25 C          23.5556    0.2660   -5.3880 C.2       3 UNK         0.4942 
     26 O          24.0179    1.2418   -5.9776 O.2       3 UNK        -0.5208 
     27 CA         23.1766    0.3978   -3.9025 C.3       3 UNK         0.0250 
     28 CB         21.7360    0.9133   -3.7601 C.3       3 UNK        -0.1990 
     29 N          23.3314   -0.8466   -3.1382 N.am      3 UNK        -0.4232 
     30 C          24.4907   -1.4975   -2.9659 C.2       2 UNK         0.4993 
     31 O          25.5601   -1.1341   -3.4622 O.2       2 UNK        -0.5286 
     32 CA         24.4239   -2.8121   -2.1723 C.3       2 UNK         0.0209 
     33 CB         24.2505   -4.0004   -3.1326 C.3       2 UNK        -0.1931 
     34 N          25.6248   -3.0307   -1.3668 N.am      2 UNK        -0.4546 
     35 C          26.0031   -2.2945   -0.3157 C.2       1 UNK         0.5154 
     36 O          25.3350   -1.3630    0.1369 O.2       1 UNK        -0.5181 
     37 C          27.9901    0.2351   -6.6177 C.2       5 UNK         0.5014 
     38 O          28.8995    0.5921   -7.3690 O.2       5 UNK        -0.5248 
     39 N          27.2838    1.0697   -5.8413 N.am      6 UNK        -0.4434 
     40 CA         27.4568    2.5218   -5.8138 C.3       6 UNK         0.0363 
     41 CB         26.7299    3.1098   -4.5938 C.3       6 UNK        -0.1936 
     42 C          26.9783    3.1855   -7.1138 C.2       6 UNK         0.5081 
     43 O          27.6699    4.0629   -7.6290 O.2       6 UNK        -0.5248 
     44 N          25.8290    2.7341   -7.6372 N.am      7 UNK        -0.4718 
     45 CA         25.2513    3.1873   -8.9057 C.3       7 UNK         0.0273 
     46 CB         23.8445    2.5920   -9.0736 C.3       7 UNK        -0.1935 
     47 C          26.1328    2.8513  -10.1199 C.2       7 UNK         0.5018 
     48 O          26.2979    3.6984  -10.9986 O.2       7 UNK        -0.5186 
     49 N          26.7013    1.6372  -10.1366 N.am      8 UNK        -0.4240 
     50 CA         27.6536    1.1874  -11.1550 C.3       8 UNK         0.0235 
     51 CB         27.7531   -0.3465  -11.1055 C.3       8 UNK        -0.2000 
     52 C          29.0553    1.8052  -11.0027 C.2       8 UNK         0.4941 
     53 O          29.8111    1.7961  -11.9750 O.2       8 UNK        -0.5273 
     54 N          29.3859    2.2854   -9.7922 N.am      9 UNK        -0.4262 
     55 CA         30.7143    2.7076   -9.3279 C.3       9 UNK         0.0264 
     56 CB         31.1832    3.9846  -10.0561 C.3       9 UNK        -0.1955 
     57 C          31.7212    1.5450   -9.4195 C.2       9 UNK         0.5031 
     58 O          32.8010    1.6942   -9.9944 O.2       9 UNK        -0.5390 
     59 N          31.3123    0.3867   -8.8839 N.am      10 UNK        -0.4204 
     60 CA         31.9346   -0.9238   -9.0965 C.3       10 UNK         0.0237 
     61 CB         31.0468   -2.0052   -8.4599 C.3       10 UNK        -0.1985 
     62 C          33.4037   -1.0606   -8.6507 C.2       10 UNK         0.4970 
     63 O          34.1204   -1.8720   -9.2387 O.2       10 UNK        -0.4914 
     64 N          33.8327   -0.2731   -7.6557 N.am      11 UNK        -0.4285 
     65 CA         35.2412   -0.1757   -7.2260 C.3       11 UNK         0.1007 
     66 C          36.0420    0.9442   -7.9557 C.2       11 UNK         0.5703 
     67 N          35.4687    1.6910   -8.8923 N.am      11 UNK        -0.7361 
     68 O          37.2248    1.1316   -7.6792 O.2       11 UNK        -0.4986 
     69 C69        35.3798   -0.0716   -5.6824 C.3       12 UNK        -0.0947 
     70 S70        34.7905   -1.5772   -4.8382 S.3       12 UNK        -0.2240 
     71 C71        33.3197   -0.9377   -3.9873 C.3       12 UNK         0.0194 
     72 H72        28.5154   -7.0310    0.3503 H         1 UNK         0.0906 
     73 H73        26.7544   -7.1522    0.3200 H         1 UNK         0.0906 
     74 H74        27.5673   -6.4474    1.7193 H         1 UNK         0.0906 
     75 H75        27.3804   -4.2460    1.7497 H         1 UNK         0.3140 
     76 H76        27.3422   -2.1235    1.3114 H         1 UNK         0.1085 
     77 H77        28.4147   -1.1033   -0.6998 H         1 UNK         0.0836 
     78 H78        28.6044   -2.6714   -1.4163 H         1 UNK         0.0836 
     79 H79        31.9261   -3.8588    0.0835 H         1 UNK         0.0731 
     80 H80        30.3865   -4.5781   -0.3065 H         1 UNK         0.0731 
     81 H81        32.7214   -1.8568   -1.4677 H         1 UNK         0.1312 
     82 H82        31.8144   -2.4784   -5.6040 H         1 UNK         0.1406 
     83 H83        29.7490   -4.7379   -2.6061 H         1 UNK         0.1631 
     84 H84        29.8255   -5.4103   -5.1697 H         1 UNK         0.0717 
     85 H85        30.2430   -4.1407   -6.2932 H         1 UNK         0.0717 
     86 H86        27.9553   -1.4872   -4.3970 H         1 UNK         0.0934 
     87 H87        29.3763   -1.6669   -5.3719 H         1 UNK         0.0934 
     88 H88        27.9865   -1.7278   -7.4571 H         1 UNK         0.0739 
     89 H89        25.7646   -1.7559   -5.6468 H         1 UNK         0.3093 
     90 H90        23.3087   -0.6310   -7.9976 H         1 UNK         0.0818 
     91 H91        23.6878   -3.0226   -8.6305 H         1 UNK         0.0819 
     92 H92        23.8623   -3.4572   -6.9359 H         1 UNK         0.0819 
     93 H93        22.3182   -2.8591   -7.5456 H         1 UNK         0.0819 
     94 H94        23.0039   -1.6794   -5.3893 H         1 UNK         0.3041 
     95 H95        23.8496    1.1377   -3.4638 H         1 UNK         0.0784 
     96 H96        21.6025    1.8509   -4.3020 H         1 UNK         0.0793 
     97 H97        21.0098    0.2021   -4.1561 H         1 UNK         0.0793 
     98 H98        21.4842    1.1068   -2.7171 H         1 UNK         0.0793 
     99 H99        22.4946   -1.2171   -2.7099 H         1 UNK         0.3024 
    100 H100       23.5687   -2.7740   -1.4938 H         1 UNK         0.1171 
    101 H101       25.0924   -4.0860   -3.8217 H         1 UNK         0.0786 
    102 H102       23.3452   -3.8960   -3.7320 H         1 UNK         0.0786 
    103 H103       24.1697   -4.9413   -2.5877 H         1 UNK         0.0786 
    104 H104       26.2482   -3.7839   -1.6483 H         1 UNK         0.2977 
    105 H105       26.5453    0.6865   -5.2669 H         1 UNK         0.3127 
    106 H106       28.5235    2.7313   -5.7066 H         1 UNK         0.0770 
    107 H107       26.8790    4.1889   -4.5367 H         1 UNK         0.0814 
    108 H108       25.6549    2.9326   -4.6351 H         1 UNK         0.0814 
    109 H109       27.1049    2.6818   -3.6640 H         1 UNK         0.0814 
    110 H110       25.2885    2.0529   -7.1079 H         1 UNK         0.2983 
    111 H111       25.1587    4.2744   -8.8566 H         1 UNK         0.0947 
    112 H112       23.8706    1.5029   -9.1163 H         1 UNK         0.0806 
    113 H113       23.3783    2.9445   -9.9946 H         1 UNK         0.0806 
    114 H114       23.1917    2.8780   -8.2486 H         1 UNK         0.0806 
    115 H115       26.4531    0.9649   -9.4145 H         1 UNK         0.3000 
    116 H116       27.2714    1.4750  -12.1369 H         1 UNK         0.0850 
    117 H117       28.4333   -0.7215  -11.8715 H         1 UNK         0.0810 
    118 H118       26.7827   -0.8128  -11.2769 H         1 UNK         0.0810 
    119 H119       28.1245   -0.6934  -10.1401 H         1 UNK         0.0810 
    120 H120       28.6853    2.2176   -9.0650 H         1 UNK         0.3040 
    121 H121       30.6091    2.9480   -8.2687 H         1 UNK         0.0766 
    122 H122       31.3531    3.8095  -11.1188 H         1 UNK         0.0812 
    123 H123       32.1206    4.3495   -9.6347 H         1 UNK         0.0812 
    124 H124       30.4498    4.7852   -9.9604 H         1 UNK         0.0812 
    125 H125       30.4187    0.3919   -8.3927 H         1 UNK         0.3205 
    126 H126       31.9343   -1.0947  -10.1752 H         1 UNK         0.0754 
    127 H127       31.5321   -2.9824   -8.4706 H         1 UNK         0.0769 
    128 H128       30.1067   -2.1071   -9.0023 H         1 UNK         0.0769 
    129 H129       30.8026   -1.7632   -7.4275 H         1 UNK         0.0769 
    130 H130       33.1892    0.3852   -7.2440 H         1 UNK         0.2981 
    131 H131       35.7534   -1.0957   -7.5134 H         1 UNK         0.0541 
    132 H132       36.0183    2.4009   -9.3487 H         1 UNK         0.3459 
    133 H133       34.5038    1.5494   -9.1791 H         1 UNK         0.3459 
    134 H134       34.8563    0.8087   -5.3059 H         1 UNK         0.0612 
    135 H135       36.4253    0.0548   -5.3955 H         1 UNK         0.0612 
    136 H136       32.7846   -0.2523   -4.6464 H         1 UNK         0.0624 
    137 H137       33.6327   -0.3552   -3.1195 H         1 UNK         0.0624 
@<TRIPOS>BOND
     1    1    2 1    
     2    1   72 1    
     3    1   73 1    
     4    1   74 1    
     5    2    3 2    
     6    2    4 am   BACKBONE|DICT|INTERRES
     7    4    5 1    
     8    4   75 1    
     9    5    6 1    
    10    5   35 1    
    11    5   76 1    
    12    6    7 1    
    13    6   77 1    
    14    6   78 1    
    15    7    8 1    
    16    8    9 1    
    17    8   79 1    
    18    8   80 1    
    19    9   10 ar   
    20    9   14 ar   
    21   10   11 ar   
    22   10   81 1    
    23   11   12 ar   
    24   11   71 1    
    25   12   13 ar   
    26   12   82 1    
    27   13   14 ar   
    28   13   15 1    
    29   14   83 1    
    30   15   16 1    
    31   15   84 1    
    32   15   85 1    
    33   16   17 1    
    34   17   18 1    
    35   17   86 1    
    36   17   87 1    
    37   18   19 1    
    38   18   37 1    
    39   18   88 1    
    40   19   20 am   BACKBONE|DICT|INTERRES
    41   19   89 1    
    42   20   21 2    
    43   20   22 1    
    44   22   23 1    
    45   22   24 1    
    46   22   90 1    
    47   23   91 1    
    48   23   92 1    
    49   23   93 1    
    50   24   25 am   BACKBONE|DICT|INTERRES
    51   24   94 1    
    52   25   26 2    
    53   25   27 1    
    54   27   28 1    
    55   27   29 1    
    56   27   95 1    
    57   28   96 1    
    58   28   97 1    
    59   28   98 1    
    60   29   30 am   BACKBONE|DICT|INTERRES
    61   29   99 1    
    62   30   31 2    
    63   30   32 1    
    64   32   33 1    
    65   32   34 1    
    66   32  100 1    
    67   33  101 1    
    68   33  102 1    
    69   33  103 1    
    70   34   35 am   BACKBONE|DICT|INTERRES
    71   34  104 1    
    72   35   36 2    
    73   37   38 2    
    74   37   39 am   BACKBONE|DICT|INTERRES
    75   39   40 1    
    76   39  105 1    
    77   40   41 1    
    78   40   42 1    
    79   40  106 1    
    80   41  107 1    
    81   41  108 1    
    82   41  109 1    
    83   42   43 2    
    84   42   44 am   BACKBONE|DICT|INTERRES
    85   44   45 1    
    86   44  110 1    
    87   45   46 1    
    88   45   47 1    
    89   45  111 1    
    90   46  112 1    
    91   46  113 1    
    92   46  114 1    
    93   47   48 2    
    94   47   49 am   BACKBONE|DICT|INTERRES
    95   49   50 1    
    96   49  115 1    
    97   50   51 1    
    98   50   52 1    
    99   50  116 1    
   100   51  117 1    
   101   51  118 1    
   102   51  119 1    
   103   52   53 2    
   104   52   54 am   BACKBONE|DICT|INTERRES
   105   54   55 1    
   106   54  120 1    
   107   55   56 1    
   108   55   57 1    
   109   55  121 1    
   110   56  122 1    
   111   56  123 1    
   112   56  124 1    
   113   57   58 2    
   114   57   59 am   BACKBONE|DICT|INTERRES
   115   59   60 1    
   116   59  125 1    
   117   60   61 1    
   118   60   62 1    
   119   60  126 1    
   120   61  127 1    
   121   61  128 1    
   122   61  129 1    
   123   62   63 2    
   124   62   64 am   BACKBONE|DICT|INTERRES
   125   64   65 1    
   126   64  130 1    
   127   65   66 1    
   128   65   69 1    
   129   65  131 1    
   130   66   67 am   BACKBONE|DICT|INTERRES
   131   66   68 2    
   132   67  132 1    
   133   67  133 1    
   134   69   70 1    
   135   69  134 1    
   136   69  135 1    
   137   70   71 1    
   138   71  136 1    
   139   71  137 1    
@<TRIPOS>SUBSTRUCTURE
     1 UNK         1 GROUP             0       ****    0 ROOT    
