@<TRIPOS>MOLECULE
3R137
137   139    1
SMALL
USER_CHARGES


@<TRIPOS>ATOM
      1 CA         23.9124   -6.3492   -4.7401 C.3       0 UNK        -0.2020 
      2 C          25.0522   -5.4399   -4.3082 C.2       0 UNK         0.4855 
      3 O          25.4430   -4.5548   -5.0684 O.2       0 UNK        -0.5197 
      4 N          25.5727   -5.6423   -3.0886 N.am      1 UNK        -0.4892 
      5 CA         26.6856   -4.8997   -2.4777 C.3       1 UNK         0.0835 
      6 C6         28.0516   -5.2370   -3.1372 C.3       12 UNK        -0.0855 
      7 S7         29.4409   -5.1159   -1.9611 S.3       12 UNK        -0.2931 
      8 C8         30.7762   -4.4293   -3.0062 C.3       12 UNK         0.0378 
      9 C9         30.9288   -2.9058   -2.9817 C.ar      12 UNK        -0.0802 
     10 C10        31.5857   -2.2812   -4.0481 C.ar      12 UNK        -0.0944 
     11 C11        31.8283   -0.9040   -4.0342 C.ar      12 UNK        -0.0787 
     12 C12        31.4190   -0.1461   -2.9373 C.ar      12 UNK        -0.0862 
     13 C13        30.7269   -0.7425   -1.8809 C.ar      12 UNK        -0.0733 
     14 C14        30.4942   -2.1222   -1.9032 C.ar      12 UNK        -0.0832 
     15 C15        30.2186    0.1076   -0.7219 C.3       12 UNK         0.0240 
     16 S16        29.1813    1.5064   -1.2754 S.3       12 UNK        -0.2522 
     17 C17        27.9201    0.6576   -2.2829 C.3       12 UNK        -0.0967 
     18 CA         28.1221    0.8844   -3.8072 C.3       5 UNK         0.0660 
     19 N          27.6543   -0.2527   -4.6042 N.am      5 UNK        -0.4015 
     20 C          27.8169   -0.3948   -5.9286 C.2       4 UNK         0.4946 
     21 O          28.4700    0.3718   -6.6347 O.2       4 UNK        -0.5353 
     22 CA         27.0962   -1.5708   -6.6036 C.3       4 UNK         0.0277 
     23 CB         27.9807   -2.8234   -6.5760 C.3       4 UNK        -0.1981 
     24 N          25.7898   -1.8504   -6.0024 N.am      4 UNK        -0.4209 
     25 C          24.7560   -0.9945   -6.0323 C.2       3 UNK         0.4942 
     26 O          24.7802    0.0904   -6.6136 O.2       3 UNK        -0.5208 
     27 CA         23.5076   -1.3806   -5.2257 C.3       3 UNK         0.0250 
     28 CB         22.6872   -2.4617   -5.9476 C.3       3 UNK        -0.1990 
     29 N          23.8469   -1.8198   -3.8708 N.am      3 UNK        -0.4232 
     30 C          24.3774   -1.0237   -2.9306 C.2       2 UNK         0.4993 
     31 O          24.5987    0.1760   -3.0932 O.2       2 UNK        -0.5286 
     32 CA         24.7625   -1.6802   -1.5943 C.3       2 UNK         0.0209 
     33 CB         23.5715   -1.6646   -0.6232 C.3       2 UNK        -0.1931 
     34 N          25.2613   -3.0517   -1.7390 N.am      2 UNK        -0.4546 
     35 C          26.3790   -3.3875   -2.4004 C.2       1 UNK         0.5154 
     36 O          27.0940   -2.5671   -2.9770 O.2       1 UNK        -0.5181 
     37 C          27.4874    2.2101   -4.2697 C.2       5 UNK         0.5014 
     38 O          28.2124    3.1657   -4.5503 O.2       5 UNK        -0.5248 
     39 N          26.1492    2.2354   -4.3574 N.am      6 UNK        -0.4434 
     40 CA         25.3620    3.3955   -4.7791 C.3       6 UNK         0.0363 
     41 CB         23.8692    3.1143   -4.5439 C.3       6 UNK        -0.1936 
     42 C          25.6125    3.8014   -6.2404 C.2       6 UNK         0.5081 
     43 O          25.7415    4.9931   -6.5228 O.2       6 UNK        -0.5248 
     44 N          25.6765    2.8119   -7.1404 N.am      7 UNK        -0.4718 
     45 CA         25.9047    3.0210   -8.5722 C.3       7 UNK         0.0273 
     46 CB         25.3811    1.7966   -9.3399 C.3       7 UNK        -0.1935 
     47 C          27.3766    3.2860   -8.9367 C.2       7 UNK         0.5018 
     48 O          27.6274    3.8017  -10.0266 O.2       7 UNK        -0.5186 
     49 N          28.3108    2.8979   -8.0529 N.am      8 UNK        -0.4240 
     50 CA         29.7629    2.8102   -8.2689 C.3       8 UNK         0.0235 
     51 CB         30.3900    4.2080   -8.4553 C.3       8 UNK        -0.2000 
     52 C          30.0938    1.8296   -9.4130 C.2       8 UNK         0.4941 
     53 O          30.8743    2.1546  -10.3093 O.2       8 UNK        -0.5273 
     54 N          29.4489    0.6566   -9.3748 N.am      9 UNK        -0.4262 
     55 CA         29.3950   -0.3179  -10.4658 C.3       9 UNK         0.0264 
     56 CB         27.9270   -0.4943  -10.8993 C.3       9 UNK        -0.1955 
     57 C          30.0536   -1.6420  -10.0530 C.2       9 UNK         0.5031 
     58 O          29.4236   -2.6977  -10.1374 O.2       9 UNK        -0.5390 
     59 N          31.3162   -1.5591   -9.6213 N.am      10 UNK        -0.4204 
     60 CA         32.1745   -2.6943   -9.2705 C.3       10 UNK         0.0237 
     61 CB         31.6614   -3.4405   -8.0199 C.3       10 UNK        -0.1985 
     62 C          33.6118   -2.2108   -9.0590 C.2       10 UNK         0.4970 
     63 O          34.5412   -2.7758   -9.6357 O.2       10 UNK        -0.4914 
     64 N          33.7532   -1.1686   -8.2336 N.am      11 UNK        -0.4285 
     65 CA         35.0187   -0.5103   -7.8898 C.3       11 UNK         0.1007 
     66 C          35.6360    0.2604   -9.0886 C.2       11 UNK         0.5703 
     67 N          36.9558    0.3801   -9.1342 N.am      11 UNK        -0.7361 
     68 O          34.9313    0.7794   -9.9527 O.2       11 UNK        -0.4986 
     69 C69        34.8339    0.4226   -6.6647 C.3       12 UNK        -0.0947 
     70 S70        34.3124   -0.4839   -5.1685 S.3       12 UNK        -0.2240 
     71 C71        32.5124   -0.2260   -5.2088 C.3       12 UNK         0.0194 
     72 H72        23.0104   -5.7636   -4.9150 H         1 UNK         0.0906 
     73 H73        24.1726   -6.8582   -5.6677 H         1 UNK         0.0906 
     74 H74        23.6861   -7.1068   -3.9901 H         1 UNK         0.0906 
     75 H75        25.1881   -6.3811   -2.5150 H         1 UNK         0.3140 
     76 H76        26.7242   -5.2473   -1.4436 H         1 UNK         0.1085 
     77 H77        28.0445   -6.2667   -3.4981 H         1 UNK         0.0836 
     78 H78        28.2344   -4.6263   -4.0193 H         1 UNK         0.0836 
     79 H79        30.6422   -4.7779   -4.0316 H         1 UNK         0.0731 
     80 H80        31.7187   -4.8585   -2.6642 H         1 UNK         0.0731 
     81 H81        31.9301   -2.8722   -4.8851 H         1 UNK         0.1312 
     82 H82        31.6049    0.9192   -2.9200 H         1 UNK         0.1406 
     83 H83        29.9799   -2.5829   -1.0720 H         1 UNK         0.1631 
     84 H84        31.0719    0.4974   -0.1654 H         1 UNK         0.0717 
     85 H85        29.6416   -0.4972   -0.0205 H         1 UNK         0.0717 
     86 H86        27.9700   -0.4038   -2.0456 H         1 UNK         0.0934 
     87 H87        26.9309    0.9763   -1.9497 H         1 UNK         0.0934 
     88 H88        29.1904    0.9598   -4.0125 H         1 UNK         0.0739 
     89 H89        27.1909   -1.0009   -4.0954 H         1 UNK         0.3093 
     90 H90        26.9227   -1.3019   -7.6473 H         1 UNK         0.0818 
     91 H91        28.2929   -3.0650   -5.5617 H         1 UNK         0.0819 
     92 H92        27.4674   -3.6902   -6.9924 H         1 UNK         0.0819 
     93 H93        28.8851   -2.6659   -7.1638 H         1 UNK         0.0819 
     94 H94        25.6843   -2.7442   -5.5249 H         1 UNK         0.3041 
     95 H95        22.8835   -0.4883   -5.1379 H         1 UNK         0.0784 
     96 H96        22.3899   -2.1219   -6.9406 H         1 UNK         0.0793 
     97 H97        23.2507   -3.3854   -6.0779 H         1 UNK         0.0793 
     98 H98        21.7744   -2.6988   -5.4009 H         1 UNK         0.0793 
     99 H99        23.7356   -2.8009   -3.6632 H         1 UNK         0.3024 
    100 H100       25.5646   -1.0804   -1.1592 H         1 UNK         0.1171 
    101 H101       23.1957   -0.6497   -0.4844 H         1 UNK         0.0786 
    102 H102       23.8561   -2.0390    0.3603 H         1 UNK         0.0786 
    103 H103       22.7423   -2.2720   -0.9880 H         1 UNK         0.0786 
    104 H104       24.7107   -3.7856   -1.3166 H         1 UNK         0.2977 
    105 H105       25.6223    1.4125   -4.0691 H         1 UNK         0.3127 
    106 H106       25.6525    4.2383   -4.1482 H         1 UNK         0.0770 
    107 H107       23.5272    2.2506   -5.1158 H         1 UNK         0.0814 
    108 H108       23.2581    3.9676   -4.8407 H         1 UNK         0.0814 
    109 H109       23.6644    2.9182   -3.4913 H         1 UNK         0.0814 
    110 H110       25.5018    1.8554   -6.8378 H         1 UNK         0.2983 
    111 H111       25.3298    3.8926   -8.8933 H         1 UNK         0.0947 
    112 H112       25.5065    1.9230  -10.4160 H         1 UNK         0.0806 
    113 H113       24.3189    1.6367   -9.1538 H         1 UNK         0.0806 
    114 H114       25.9096    0.8877   -9.0510 H         1 UNK         0.0806 
    115 H115       27.9851    2.4478   -7.2056 H         1 UNK         0.3000 
    116 H116       30.1844    2.3792   -7.3594 H         1 UNK         0.0850 
    117 H117       31.4777    4.1424   -8.4993 H         1 UNK         0.0810 
    118 H118       30.1375    4.8678   -7.6253 H         1 UNK         0.0810 
    119 H119       30.0573    4.6853   -9.3774 H         1 UNK         0.0810 
    120 H120       28.9116    0.4447   -8.5373 H         1 UNK         0.3040 
    121 H121       29.9495    0.0482  -11.3323 H         1 UNK         0.0766 
    122 H122       27.4935    0.4539  -11.2171 H         1 UNK         0.0812 
    123 H123       27.3118   -0.8935  -10.0925 H         1 UNK         0.0812 
    124 H124       27.8475   -1.1828  -11.7415 H         1 UNK         0.0812 
    125 H125       31.7663   -0.6534   -9.6534 H         1 UNK         0.3205 
    126 H126       32.1832   -3.3892  -10.1129 H         1 UNK         0.0754 
    127 H127       32.3925   -4.1691   -7.6664 H         1 UNK         0.0769 
    128 H128       30.7453   -3.9916   -8.2317 H         1 UNK         0.0769 
    129 H129       31.4538   -2.7562   -7.1983 H         1 UNK         0.0769 
    130 H130       32.9332   -0.7830   -7.7956 H         1 UNK         0.2981 
    131 H131       35.7231   -1.2975   -7.6126 H         1 UNK         0.0541 
    132 H132       37.3748    0.8886   -9.8972 H         1 UNK         0.3459 
    133 H133       37.5425   -0.0308   -8.4245 H         1 UNK         0.3459 
    134 H134       34.1187    1.2180   -6.8832 H         1 UNK         0.0612 
    135 H135       35.7747    0.9210   -6.4240 H         1 UNK         0.0612 
    136 H136       32.0948   -0.6154   -6.1363 H         1 UNK         0.0624 
    137 H137       32.3028    0.8451   -5.2050 H         1 UNK         0.0624 
@<TRIPOS>BOND
     1    1    2 1    
     2    1   72 1    
     3    1   73 1    
     4    1   74 1    
     5    2    3 2    
     6    2    4 am   BACKBONE|DICT|INTERRES
     7    4    5 1    
     8    4   75 1    
     9    5    6 1    
    10    5   35 1    
    11    5   76 1    
    12    6    7 1    
    13    6   77 1    
    14    6   78 1    
    15    7    8 1    
    16    8    9 1    
    17    8   79 1    
    18    8   80 1    
    19    9   10 ar   
    20    9   14 ar   
    21   10   11 ar   
    22   10   81 1    
    23   11   12 ar   
    24   11   71 1    
    25   12   13 ar   
    26   12   82 1    
    27   13   14 ar   
    28   13   15 1    
    29   14   83 1    
    30   15   16 1    
    31   15   84 1    
    32   15   85 1    
    33   16   17 1    
    34   17   18 1    
    35   17   86 1    
    36   17   87 1    
    37   18   19 1    
    38   18   37 1    
    39   18   88 1    
    40   19   20 am   BACKBONE|DICT|INTERRES
    41   19   89 1    
    42   20   21 2    
    43   20   22 1    
    44   22   23 1    
    45   22   24 1    
    46   22   90 1    
    47   23   91 1    
    48   23   92 1    
    49   23   93 1    
    50   24   25 am   BACKBONE|DICT|INTERRES
    51   24   94 1    
    52   25   26 2    
    53   25   27 1    
    54   27   28 1    
    55   27   29 1    
    56   27   95 1    
    57   28   96 1    
    58   28   97 1    
    59   28   98 1    
    60   29   30 am   BACKBONE|DICT|INTERRES
    61   29   99 1    
    62   30   31 2    
    63   30   32 1    
    64   32   33 1    
    65   32   34 1    
    66   32  100 1    
    67   33  101 1    
    68   33  102 1    
    69   33  103 1    
    70   34   35 am   BACKBONE|DICT|INTERRES
    71   34  104 1    
    72   35   36 2    
    73   37   38 2    
    74   37   39 am   BACKBONE|DICT|INTERRES
    75   39   40 1    
    76   39  105 1    
    77   40   41 1    
    78   40   42 1    
    79   40  106 1    
    80   41  107 1    
    81   41  108 1    
    82   41  109 1    
    83   42   43 2    
    84   42   44 am   BACKBONE|DICT|INTERRES
    85   44   45 1    
    86   44  110 1    
    87   45   46 1    
    88   45   47 1    
    89   45  111 1    
    90   46  112 1    
    91   46  113 1    
    92   46  114 1    
    93   47   48 2    
    94   47   49 am   BACKBONE|DICT|INTERRES
    95   49   50 1    
    96   49  115 1    
    97   50   51 1    
    98   50   52 1    
    99   50  116 1    
   100   51  117 1    
   101   51  118 1    
   102   51  119 1    
   103   52   53 2    
   104   52   54 am   BACKBONE|DICT|INTERRES
   105   54   55 1    
   106   54  120 1    
   107   55   56 1    
   108   55   57 1    
   109   55  121 1    
   110   56  122 1    
   111   56  123 1    
   112   56  124 1    
   113   57   58 2    
   114   57   59 am   BACKBONE|DICT|INTERRES
   115   59   60 1    
   116   59  125 1    
   117   60   61 1    
   118   60   62 1    
   119   60  126 1    
   120   61  127 1    
   121   61  128 1    
   122   61  129 1    
   123   62   63 2    
   124   62   64 am   BACKBONE|DICT|INTERRES
   125   64   65 1    
   126   64  130 1    
   127   65   66 1    
   128   65   69 1    
   129   65  131 1    
   130   66   67 am   BACKBONE|DICT|INTERRES
   131   66   68 2    
   132   67  132 1    
   133   67  133 1    
   134   69   70 1    
   135   69  134 1    
   136   69  135 1    
   137   70   71 1    
   138   71  136 1    
   139   71  137 1    
@<TRIPOS>SUBSTRUCTURE
     1 UNK         1 GROUP             0       ****    0 ROOT    
