@<TRIPOS>MOLECULE
3R137
137   139    1
SMALL
USER_CHARGES


@<TRIPOS>ATOM
      1 CA         27.1896    0.2868    3.7292 C.3       0 UNK        -0.2020 
      2 C          26.9813    0.3618    2.2240 C.2       0 UNK         0.4855 
      3 O          26.5438    1.3954    1.7185 O.2       0 UNK        -0.5197 
      4 N          27.2949   -0.7246    1.5046 N.am      1 UNK        -0.4892 
      5 CA         27.1357   -0.8431    0.0492 C.3       1 UNK         0.0835 
      6 C6         27.8976   -2.0819   -0.4882 C.3       12 UNK        -0.0855 
      7 S7         28.1377   -2.0507   -2.2941 S.3       12 UNK        -0.2931 
      8 C8         29.3740   -3.3723   -2.4902 C.3       12 UNK         0.0378 
      9 C9         29.7789   -3.5244   -3.9480 C.ar      12 UNK        -0.0802 
     10 C10        31.0228   -3.0702   -4.3951 C.ar      12 UNK        -0.0944 
     11 C11        31.3771   -3.1797   -5.7439 C.ar      12 UNK        -0.0787 
     12 C12        30.4740   -3.7536   -6.6469 C.ar      12 UNK        -0.0862 
     13 C13        29.2327   -4.2302   -6.2096 C.ar      12 UNK        -0.0733 
     14 C14        28.9010   -4.1209   -4.8548 C.ar      12 UNK        -0.0832 
     15 C15        28.2831   -4.9129   -7.1912 C.3       12 UNK         0.0240 
     16 S16        26.5263   -4.4812   -6.9287 S.3       12 UNK        -0.2522 
     17 C17        26.2020   -3.2485   -8.2353 C.3       12 UNK        -0.0967 
     18 CA         26.2569   -1.7717   -7.7710 C.3       5 UNK         0.0660 
     19 N          25.4437   -1.5153   -6.5751 N.am      5 UNK        -0.4015 
     20 C          25.1257   -0.3155   -6.0711 C.2       4 UNK         0.4946 
     21 O          25.5303    0.7444   -6.5533 O.2       4 UNK        -0.5353 
     22 CA         24.2477   -0.2622   -4.8052 C.3       4 UNK         0.0277 
     23 CB         22.8016    0.1331   -5.1616 C.3       4 UNK        -0.1981 
     24 N          24.2704   -1.4543   -3.9405 N.am      4 UNK        -0.4209 
     25 C          23.8202   -2.6942   -4.1985 C.2       3 UNK         0.4942 
     26 O          23.3895   -3.0457   -5.2965 O.2       3 UNK        -0.5208 
     27 CA         23.8730   -3.7339   -3.0610 C.3       3 UNK         0.0250 
     28 CB         25.0635   -4.6852   -3.2618 C.3       3 UNK        -0.1990 
     29 N          23.9614   -3.1435   -1.7245 N.am      3 UNK        -0.4232 
     30 C          22.9990   -2.4290   -1.1233 C.2       2 UNK         0.4993 
     31 O          21.8647   -2.2888   -1.5814 O.2       2 UNK        -0.5286 
     32 CA         23.3694   -1.7264    0.1988 C.3       2 UNK         0.0209 
     33 CB         22.7644   -2.4776    1.3962 C.3       2 UNK        -0.1931 
     34 N          24.8129   -1.5564    0.4204 N.am      2 UNK        -0.4546 
     35 C          25.6498   -0.8658   -0.3709 C.2       1 UNK         0.5154 
     36 O          25.2913   -0.2876   -1.3985 O.2       1 UNK        -0.5181 
     37 C          27.7011   -1.2320   -7.7125 C.2       5 UNK         0.5014 
     38 O          28.3383   -1.1489   -8.7629 O.2       5 UNK        -0.5248 
     39 N          28.1733   -0.7971   -6.5351 N.am      6 UNK        -0.4434 
     40 CA         29.4116   -0.0347   -6.3641 C.3       6 UNK         0.0363 
     41 CB         29.6203    0.2938   -4.8786 C.3       6 UNK        -0.1936 
     42 C          29.4548    1.2595   -7.1936 C.2       6 UNK         0.5081 
     43 O          30.5199    1.6157   -7.6972 O.2       6 UNK        -0.5248 
     44 N          28.2961    1.9161   -7.3570 N.am      7 UNK        -0.4718 
     45 CA         28.1391    3.1123   -8.1874 C.3       7 UNK         0.0273 
     46 CB         26.7963    3.7842   -7.8603 C.3       7 UNK        -0.1935 
     47 C          28.2413    2.8155   -9.6938 C.2       7 UNK         0.5018 
     48 O          28.7020    3.6755  -10.4444 O.2       7 UNK        -0.5186 
     49 N          27.8225    1.6105  -10.1060 N.am      8 UNK        -0.4240 
     50 CA         27.9312    1.1232  -11.4821 C.3       8 UNK         0.0235 
     51 CB         26.8893    0.0189  -11.7285 C.3       8 UNK        -0.2000 
     52 C          29.3504    0.6206  -11.7871 C.2       8 UNK         0.4941 
     53 O          29.8802    0.9178  -12.8582 O.2       8 UNK        -0.5273 
     54 N          29.9436   -0.1147  -10.8354 N.am      9 UNK        -0.4262 
     55 CA         31.3159   -0.6224  -10.8986 C.3       9 UNK         0.0264 
     56 CB         31.5235   -1.6501   -9.7738 C.3       9 UNK        -0.1955 
     57 C          32.3822    0.4837  -10.8120 C.2       9 UNK         0.5031 
     58 O          33.4660    0.3111  -11.3712 O.2       9 UNK        -0.5390 
     59 N          32.0614    1.5776  -10.1032 N.am      10 UNK        -0.4204 
     60 CA         32.9201    2.7248   -9.7849 C.3       10 UNK         0.0237 
     61 CB         33.3218    3.4970  -11.0599 C.3       10 UNK        -0.1985 
     62 C          34.1216    2.3320   -8.9022 C.2       10 UNK         0.4970 
     63 O          35.2072    2.8969   -9.0482 O.2       10 UNK        -0.4914 
     64 N          33.9006    1.3647   -8.0032 N.am      11 UNK        -0.4285 
     65 CA         34.9009    0.8304   -7.0675 C.3       11 UNK         0.1007 
     66 C          35.1508    1.7103   -5.8073 C.2       11 UNK         0.5703 
     67 N          34.3670    2.7528   -5.5557 N.am      11 UNK        -0.7361 
     68 O          36.0870    1.4523   -5.0541 O.2       11 UNK        -0.4986 
     69 C69        34.6053   -0.6514   -6.7114 C.3       12 UNK        -0.0947 
     70 S70        32.9542   -0.9082   -5.9817 S.3       12 UNK        -0.2240 
     71 C71        32.7444   -2.6999   -6.2159 C.3       12 UNK         0.0194 
     72 H72        27.5875   -0.6791    4.0398 H         1 UNK         0.0906 
     73 H73        27.8878    1.0594    4.0501 H         1 UNK         0.0906 
     74 H74        26.2441    0.4460    4.2469 H         1 UNK         0.0906 
     75 H75        27.6644   -1.5379    1.9777 H         1 UNK         0.3140 
     76 H76        27.5798    0.0499   -0.3974 H         1 UNK         0.1085 
     77 H77        28.8881   -2.1229   -0.0314 H         1 UNK         0.0836 
     78 H78        27.3984   -3.0113   -0.2068 H         1 UNK         0.0836 
     79 H79        30.2455   -3.1494   -1.8726 H         1 UNK         0.0731 
     80 H80        28.9629   -4.3138   -2.1226 H         1 UNK         0.0731 
     81 H81        31.7138   -2.6167   -3.6976 H         1 UNK         0.1312 
     82 H82        30.7450   -3.8459   -7.6895 H         1 UNK         0.1406 
     83 H83        27.9505   -4.4935   -4.5015 H         1 UNK         0.1631 
     84 H84        28.3899   -5.9911   -7.0666 H         1 UNK         0.0717 
     85 H85        28.5699   -4.6972   -8.2212 H         1 UNK         0.0717 
     86 H86        26.8577   -3.4208   -9.0911 H         1 UNK         0.0934 
     87 H87        25.1985   -3.4548   -8.6107 H         1 UNK         0.0934 
     88 H88        25.7867   -1.1875   -8.5650 H         1 UNK         0.0739 
     89 H89        25.0101   -2.3279   -6.1485 H         1 UNK         0.3093 
     90 H90        24.6614    0.5397   -4.1913 H         1 UNK         0.0818 
     91 H91        22.1938    0.2597   -4.2656 H         1 UNK         0.0819 
     92 H92        22.7790    1.0790   -5.7047 H         1 UNK         0.0819 
     93 H93        22.3183   -0.6133   -5.7925 H         1 UNK         0.0819 
     94 H94        24.6387   -1.2744   -3.0102 H         1 UNK         0.3041 
     95 H95        22.9516   -4.3178   -3.1119 H         1 UNK         0.0784 
     96 H96        25.0241   -5.1610   -4.2428 H         1 UNK         0.0793 
     97 H97        26.0141   -4.1565   -3.1921 H         1 UNK         0.0793 
     98 H98        25.0662   -5.4821   -2.5179 H         1 UNK         0.0793 
     99 H99        24.8533   -3.2141   -1.2580 H         1 UNK         0.3024 
    100 H100       22.9260   -0.7288    0.1580 H         1 UNK         0.1171 
    101 H101       23.1903   -3.4760    1.5034 H         1 UNK         0.0786 
    102 H102       22.9299   -1.9381    2.3290 H         1 UNK         0.0786 
    103 H103       21.6858   -2.5944    1.2803 H         1 UNK         0.0786 
    104 H104       25.1955   -1.9843    1.2514 H         1 UNK         0.2977 
    105 H105       27.5974   -0.9188   -5.7158 H         1 UNK         0.3127 
    106 H106       30.2262   -0.6715   -6.7055 H         1 UNK         0.0770 
    107 H107       28.7931    0.8749   -4.4694 H         1 UNK         0.0814 
    108 H108       30.5335    0.8723   -4.7319 H         1 UNK         0.0814 
    109 H109       29.7211   -0.6116   -4.2849 H         1 UNK         0.0814 
    110 H110       27.4539    1.5409   -6.9313 H         1 UNK         0.2983 
    111 H111       28.9416    3.8094   -7.9354 H         1 UNK         0.0947 
    112 H112       26.6614    4.6943   -8.4464 H         1 UNK         0.0806 
    113 H113       26.7392    4.0649   -6.8085 H         1 UNK         0.0806 
    114 H114       25.9526    3.1273   -8.0771 H         1 UNK         0.0806 
    115 H115       27.5055    0.9504   -9.4104 H         1 UNK         0.3000 
    116 H116       27.7140    1.9483  -12.1644 H         1 UNK         0.0850 
    117 H117       26.9292   -0.3267  -12.7623 H         1 UNK         0.0810 
    118 H118       25.8773    0.3817  -11.5481 H         1 UNK         0.0810 
    119 H119       27.0527   -0.8501  -11.0907 H         1 UNK         0.0810 
    120 H120       29.3979   -0.3808  -10.0165 H         1 UNK         0.3040 
    121 H121       31.4430   -1.1304  -11.8568 H         1 UNK         0.0766 
    122 H122       31.3835   -1.2029   -8.7894 H         1 UNK         0.0812 
    123 H123       32.5313   -2.0666   -9.8036 H         1 UNK         0.0812 
    124 H124       30.8243   -2.4815   -9.8642 H         1 UNK         0.0812 
    125 H125       31.1781    1.5656   -9.6024 H         1 UNK         0.3205 
    126 H126       32.3092    3.3940   -9.1772 H         1 UNK         0.0754 
    127 H127       33.8315    4.4278  -10.8085 H         1 UNK         0.0769 
    128 H128       32.4468    3.7581  -11.6554 H         1 UNK         0.0769 
    129 H129       33.9968    2.9180  -11.6907 H         1 UNK         0.0769 
    130 H130       32.9669    0.9892   -7.9107 H         1 UNK         0.2981 
    131 H131       35.8571    0.8272   -7.5942 H         1 UNK         0.0541 
    132 H132       33.5933    2.9670   -6.1634 H         1 UNK         0.3459 
    133 H133       34.5440    3.3187   -4.7410 H         1 UNK         0.3459 
    134 H134       35.3584   -1.0484   -6.0284 H         1 UNK         0.0612 
    135 H135       34.6771   -1.2555   -7.6172 H         1 UNK         0.0612 
    136 H136       32.8937   -2.9417   -7.2691 H         1 UNK         0.0624 
    137 H137       33.5215   -3.2271   -5.6609 H         1 UNK         0.0624 
@<TRIPOS>BOND
     1    1    2 1    
     2    1   72 1    
     3    1   73 1    
     4    1   74 1    
     5    2    3 2    
     6    2    4 am   BACKBONE|DICT|INTERRES
     7    4    5 1    
     8    4   75 1    
     9    5    6 1    
    10    5   35 1    
    11    5   76 1    
    12    6    7 1    
    13    6   77 1    
    14    6   78 1    
    15    7    8 1    
    16    8    9 1    
    17    8   79 1    
    18    8   80 1    
    19    9   10 ar   
    20    9   14 ar   
    21   10   11 ar   
    22   10   81 1    
    23   11   12 ar   
    24   11   71 1    
    25   12   13 ar   
    26   12   82 1    
    27   13   14 ar   
    28   13   15 1    
    29   14   83 1    
    30   15   16 1    
    31   15   84 1    
    32   15   85 1    
    33   16   17 1    
    34   17   18 1    
    35   17   86 1    
    36   17   87 1    
    37   18   19 1    
    38   18   37 1    
    39   18   88 1    
    40   19   20 am   BACKBONE|DICT|INTERRES
    41   19   89 1    
    42   20   21 2    
    43   20   22 1    
    44   22   23 1    
    45   22   24 1    
    46   22   90 1    
    47   23   91 1    
    48   23   92 1    
    49   23   93 1    
    50   24   25 am   BACKBONE|DICT|INTERRES
    51   24   94 1    
    52   25   26 2    
    53   25   27 1    
    54   27   28 1    
    55   27   29 1    
    56   27   95 1    
    57   28   96 1    
    58   28   97 1    
    59   28   98 1    
    60   29   30 am   BACKBONE|DICT|INTERRES
    61   29   99 1    
    62   30   31 2    
    63   30   32 1    
    64   32   33 1    
    65   32   34 1    
    66   32  100 1    
    67   33  101 1    
    68   33  102 1    
    69   33  103 1    
    70   34   35 am   BACKBONE|DICT|INTERRES
    71   34  104 1    
    72   35   36 2    
    73   37   38 2    
    74   37   39 am   BACKBONE|DICT|INTERRES
    75   39   40 1    
    76   39  105 1    
    77   40   41 1    
    78   40   42 1    
    79   40  106 1    
    80   41  107 1    
    81   41  108 1    
    82   41  109 1    
    83   42   43 2    
    84   42   44 am   BACKBONE|DICT|INTERRES
    85   44   45 1    
    86   44  110 1    
    87   45   46 1    
    88   45   47 1    
    89   45  111 1    
    90   46  112 1    
    91   46  113 1    
    92   46  114 1    
    93   47   48 2    
    94   47   49 am   BACKBONE|DICT|INTERRES
    95   49   50 1    
    96   49  115 1    
    97   50   51 1    
    98   50   52 1    
    99   50  116 1    
   100   51  117 1    
   101   51  118 1    
   102   51  119 1    
   103   52   53 2    
   104   52   54 am   BACKBONE|DICT|INTERRES
   105   54   55 1    
   106   54  120 1    
   107   55   56 1    
   108   55   57 1    
   109   55  121 1    
   110   56  122 1    
   111   56  123 1    
   112   56  124 1    
   113   57   58 2    
   114   57   59 am   BACKBONE|DICT|INTERRES
   115   59   60 1    
   116   59  125 1    
   117   60   61 1    
   118   60   62 1    
   119   60  126 1    
   120   61  127 1    
   121   61  128 1    
   122   61  129 1    
   123   62   63 2    
   124   62   64 am   BACKBONE|DICT|INTERRES
   125   64   65 1    
   126   64  130 1    
   127   65   66 1    
   128   65   69 1    
   129   65  131 1    
   130   66   67 am   BACKBONE|DICT|INTERRES
   131   66   68 2    
   132   67  132 1    
   133   67  133 1    
   134   69   70 1    
   135   69  134 1    
   136   69  135 1    
   137   70   71 1    
   138   71  136 1    
   139   71  137 1    
@<TRIPOS>SUBSTRUCTURE
     1 UNK         1 GROUP             0       ****    0 ROOT    
