@<TRIPOS>MOLECULE
3R137
137   139    1
SMALL
USER_CHARGES


@<TRIPOS>ATOM
      1 CA         24.6503   -5.8690   -2.7804 C.3       0 UNK        -0.2020 
      2 C          25.1553   -6.0735   -1.3607 C.2       0 UNK         0.4855 
      3 O          24.5647   -6.8376   -0.5975 O.2       0 UNK        -0.5197 
      4 N          26.2296   -5.3726   -0.9840 N.am      1 UNK        -0.4892 
      5 CA         26.8766   -5.3977    0.3358 C.3       1 UNK         0.0835 
      6 C6         28.3992   -5.0966    0.2256 C.3       12 UNK        -0.0855 
      7 S7         28.8112   -3.6848   -0.8691 S.3       12 UNK        -0.2931 
      8 C8         29.6296   -4.5707   -2.2333 C.3       12 UNK         0.0378 
      9 C9         29.8772   -3.6856   -3.4468 C.ar      12 UNK        -0.0802 
     10 C10        30.7226   -2.5755   -3.3541 C.ar      12 UNK        -0.0944 
     11 C11        30.9992   -1.7987   -4.4829 C.ar      12 UNK        -0.0787 
     12 C12        30.4339   -2.1440   -5.7141 C.ar      12 UNK        -0.0862 
     13 C13        29.5909   -3.2542   -5.8207 C.ar      12 UNK        -0.0733 
     14 C14        29.3064   -4.0128   -4.6814 C.ar      12 UNK        -0.0832 
     15 C15        29.0274   -3.6710   -7.1721 C.3       12 UNK         0.0240 
     16 S16        27.3324   -3.0615   -7.4300 S.3       12 UNK        -0.2522 
     17 C17        27.6332   -1.3038   -7.8092 C.3       12 UNK        -0.0967 
     18 CA         26.9683   -0.3425   -6.7984 C.3       5 UNK         0.0660 
     19 N          27.3896   -0.6091   -5.4199 N.am      5 UNK        -0.4015 
     20 C          26.7839   -0.1165   -4.3343 C.2       4 UNK         0.4946 
     21 O          25.7742    0.5937   -4.3714 O.2       4 UNK        -0.5353 
     22 CA         27.4345   -0.4523   -2.9830 C.3       4 UNK         0.0277 
     23 CB         28.5992    0.5087   -2.6924 C.3       4 UNK        -0.1981 
     24 N          26.4553   -0.3502   -1.9009 N.am      4 UNK        -0.4209 
     25 C          25.5780   -1.3088   -1.5884 C.2       3 UNK         0.4942 
     26 O          25.5618   -2.4325   -2.1012 O.2       3 UNK        -0.5208 
     27 CA         24.5284   -0.9496   -0.5309 C.3       3 UNK         0.0250 
     28 CB         23.2493   -0.3930   -1.1793 C.3       3 UNK        -0.1990 
     29 N          24.2265   -2.1700    0.1999 N.am      3 UNK        -0.4232 
     30 C          23.9008   -2.2654    1.4931 C.2       2 UNK         0.4993 
     31 O          23.6410   -1.3000    2.2124 O.2       2 UNK        -0.5286 
     32 CA         23.8977   -3.6851    2.0928 C.3       2 UNK         0.0209 
     33 CB         22.4764   -4.2709    2.0910 C.3       2 UNK        -0.1931 
     34 N          24.7986   -4.5985    1.3791 N.am      2 UNK        -0.4546 
     35 C          26.1352   -4.4895    1.3454 C.2       1 UNK         0.5154 
     36 O          26.7582   -3.6897    2.0462 O.2       1 UNK        -0.5181 
     37 C          27.2419    1.1222   -7.2013 C.2       5 UNK         0.5014 
     38 O          28.1406    1.7599   -6.6462 O.2       5 UNK        -0.5248 
     39 N          26.4759    1.6081   -8.1838 N.am      6 UNK        -0.4434 
     40 CA         26.5856    2.9473   -8.7616 C.3       6 UNK         0.0363 
     41 CB         25.1902    3.5976   -8.7409 C.3       6 UNK        -0.1936 
     42 C          27.1243    2.8717  -10.1997 C.2       6 UNK         0.5081 
     43 O          27.2283    1.7814  -10.7690 O.2       6 UNK        -0.5248 
     44 N          27.4272    4.0485  -10.7662 N.am      7 UNK        -0.4718 
     45 CA         27.9063    4.2751  -12.1360 C.3       7 UNK         0.0273 
     46 CB         26.7892    3.9573  -13.1577 C.3       7 UNK        -0.1935 
     47 C          29.2410    3.5538  -12.4103 C.2       7 UNK         0.5018 
     48 O          30.1247    3.5813  -11.5529 O.2       7 UNK        -0.5186 
     49 N          29.3757    2.9146  -13.5803 N.am      8 UNK        -0.4240 
     50 CA         30.5764    2.1886  -14.0128 C.3       8 UNK         0.0235 
     51 CB         30.3926    1.7408  -15.4724 C.3       8 UNK        -0.2000 
     52 C          30.9545    0.9861  -13.1252 C.2       8 UNK         0.4941 
     53 O          32.1108    0.5637  -13.1536 O.2       8 UNK        -0.5273 
     54 N          29.9901    0.4612  -12.3574 N.am      9 UNK        -0.4262 
     55 CA         30.1854   -0.6317  -11.4059 C.3       9 UNK         0.0264 
     56 CB         28.8760   -1.4318  -11.3002 C.3       9 UNK        -0.1955 
     57 C          30.6576   -0.1583  -10.0174 C.2       9 UNK         0.5031 
     58 O          30.9682   -1.0131   -9.1866 O.2       9 UNK        -0.5390 
     59 N          30.6911    1.1598   -9.7617 N.am      10 UNK        -0.4204 
     60 CA         31.1221    1.7355   -8.4844 C.3       10 UNK         0.0237 
     61 CB         30.7665    3.2302   -8.4434 C.3       10 UNK        -0.1985 
     62 C          32.6248    1.5398   -8.2225 C.2       10 UNK         0.4970 
     63 O          33.4180    1.4622   -9.1637 O.2       10 UNK        -0.4914 
     64 N          32.9795    1.5016   -6.9346 N.am      11 UNK        -0.4285 
     65 CA         34.3518    1.3124   -6.4376 C.3       11 UNK         0.1007 
     66 C          35.2338    2.5951   -6.4771 C.2       11 UNK         0.5703 
     67 N          34.6985    3.7670   -6.7994 N.am      11 UNK        -0.7361 
     68 O          36.4332    2.5229   -6.2198 O.2       11 UNK        -0.4986 
     69 C69        34.3521    0.6692   -5.0243 C.3       12 UNK        -0.0947 
     70 S70        33.5794   -0.9834   -5.0117 S.3       12 UNK        -0.2240 
     71 C71        31.9190   -0.5936   -4.3811 C.3       12 UNK         0.0194 
     72 H72        25.2317   -5.1161   -3.3133 H         1 UNK         0.0906 
     73 H73        24.7085   -6.8031   -3.3384 H         1 UNK         0.0906 
     74 H74        23.6107   -5.5431   -2.7657 H         1 UNK         0.0906 
     75 H75        26.6212   -4.6891   -1.6210 H         1 UNK         0.3140 
     76 H76        26.7842   -6.4080    0.7414 H         1 UNK         0.1085 
     77 H77        28.8455   -4.9238    1.2068 H         1 UNK         0.0836 
     78 H78        28.9026   -5.9895   -0.1481 H         1 UNK         0.0836 
     79 H79        29.0209   -5.4326   -2.5120 H         1 UNK         0.0731 
     80 H80        30.5829   -4.9675   -1.8810 H         1 UNK         0.0731 
     81 H81        31.1714   -2.3242   -2.4026 H         1 UNK         0.1312 
     82 H82        30.6741   -1.5609   -6.5932 H         1 UNK         0.1406 
     83 H83        28.6622   -4.8778   -4.7667 H         1 UNK         0.1631 
     84 H84        29.0188   -4.7598   -7.2409 H         1 UNK         0.0717 
     85 H85        29.6715   -3.3262   -7.9832 H         1 UNK         0.0717 
     86 H86        28.7045   -1.1135   -7.8673 H         1 UNK         0.0934 
     87 H87        27.2422   -1.1227   -8.8110 H         1 UNK         0.0934 
     88 H88        25.8882   -0.5015   -6.8410 H         1 UNK         0.0739 
     89 H89        28.2157   -1.1799   -5.3110 H         1 UNK         0.3093 
     90 H90        27.8221   -1.4732   -3.0236 H         1 UNK         0.0818 
     91 H91        29.3353    0.4875   -3.4959 H         1 UNK         0.0819 
     92 H92        28.2586    1.5403   -2.5960 H         1 UNK         0.0819 
     93 H93        29.1166    0.2349   -1.7727 H         1 UNK         0.0819 
     94 H94        26.3610    0.5569   -1.4680 H         1 UNK         0.3041 
     95 H95        24.9502   -0.2091    0.1525 H         1 UNK         0.0784 
     96 H96        23.4618    0.5145   -1.7460 H         1 UNK         0.0793 
     97 H97        22.8030   -1.1115   -1.8681 H         1 UNK         0.0793 
     98 H98        22.5015   -0.1402   -0.4274 H         1 UNK         0.0793 
     99 H99        24.4630   -3.0131   -0.3082 H         1 UNK         0.3024 
    100 H100       24.2414   -3.6044    3.1266 H         1 UNK         0.1171 
    101 H101       22.0881   -4.3867    1.0783 H         1 UNK         0.0786 
    102 H102       22.4491   -5.2473    2.5752 H         1 UNK         0.0786 
    103 H103       21.7868   -3.6222    2.6331 H         1 UNK         0.0786 
    104 H104       24.3753   -5.3095    0.7914 H         1 UNK         0.2977 
    105 H105       25.8245    0.9904   -8.6478 H         1 UNK         0.3127 
    106 H106       27.2687    3.5641   -8.1738 H         1 UNK         0.0770 
    107 H107       25.2222    4.6229   -9.1113 H         1 UNK         0.0814 
    108 H108       24.7885    3.6370   -7.7281 H         1 UNK         0.0814 
    109 H109       24.4794    3.0496   -9.3609 H         1 UNK         0.0814 
    110 H110       27.3397    4.8816  -10.2005 H         1 UNK         0.2983 
    111 H111       28.1268    5.3411  -12.2108 H         1 UNK         0.0947 
    112 H112       27.0670    4.2708  -14.1647 H         1 UNK         0.0806 
    113 H113       25.8707    4.4887  -12.9080 H         1 UNK         0.0806 
    114 H114       26.5518    2.8931  -13.1905 H         1 UNK         0.0806 
    115 H115       28.5989    2.9302  -14.2254 H         1 UNK         0.3000 
    116 H116       31.4139    2.8885  -13.9726 H         1 UNK         0.0850 
    117 H117       29.5507    1.0560  -15.5816 H         1 UNK         0.0810 
    118 H118       31.2816    1.2242  -15.8376 H         1 UNK         0.0810 
    119 H119       30.2231    2.5922  -16.1320 H         1 UNK         0.0810 
    120 H120       29.0717    0.8851  -12.3740 H         1 UNK         0.3040 
    121 H121       30.9559   -1.3056  -11.7867 H         1 UNK         0.0766 
    122 H122       28.6120   -1.8826  -12.2568 H         1 UNK         0.0812 
    123 H123       28.0437   -0.8006  -10.9898 H         1 UNK         0.0812 
    124 H124       28.9637   -2.2430  -10.5758 H         1 UNK         0.0812 
    125 H125       30.4641    1.8175  -10.5001 H         1 UNK         0.3205 
    126 H126       30.5665    1.2264   -7.6941 H         1 UNK         0.0754 
    127 H127       30.9741    3.6572   -7.4617 H         1 UNK         0.0769 
    128 H128       29.7084    3.3917   -8.6441 H         1 UNK         0.0769 
    129 H129       31.3382    3.8012   -9.1762 H         1 UNK         0.0769 
    130 H130       32.2702    1.6200   -6.2282 H         1 UNK         0.2981 
    131 H131       34.8465    0.6079   -7.1092 H         1 UNK         0.0541 
    132 H132       33.7197    3.8397   -7.0226 H         1 UNK         0.3459 
    133 H133       35.2853    4.5860   -6.8252 H         1 UNK         0.3459 
    134 H134       33.8539    1.3176   -4.3012 H         1 UNK         0.0612 
    135 H135       35.3741    0.5424   -4.6624 H         1 UNK         0.0612 
    136 H136       31.9972   -0.2540   -3.3470 H         1 UNK         0.0624 
    137 H137       31.4894    0.2327   -4.9475 H         1 UNK         0.0624 
@<TRIPOS>BOND
     1    1    2 1    
     2    1   72 1    
     3    1   73 1    
     4    1   74 1    
     5    2    3 2    
     6    2    4 am   BACKBONE|DICT|INTERRES
     7    4    5 1    
     8    4   75 1    
     9    5    6 1    
    10    5   35 1    
    11    5   76 1    
    12    6    7 1    
    13    6   77 1    
    14    6   78 1    
    15    7    8 1    
    16    8    9 1    
    17    8   79 1    
    18    8   80 1    
    19    9   10 ar   
    20    9   14 ar   
    21   10   11 ar   
    22   10   81 1    
    23   11   12 ar   
    24   11   71 1    
    25   12   13 ar   
    26   12   82 1    
    27   13   14 ar   
    28   13   15 1    
    29   14   83 1    
    30   15   16 1    
    31   15   84 1    
    32   15   85 1    
    33   16   17 1    
    34   17   18 1    
    35   17   86 1    
    36   17   87 1    
    37   18   19 1    
    38   18   37 1    
    39   18   88 1    
    40   19   20 am   BACKBONE|DICT|INTERRES
    41   19   89 1    
    42   20   21 2    
    43   20   22 1    
    44   22   23 1    
    45   22   24 1    
    46   22   90 1    
    47   23   91 1    
    48   23   92 1    
    49   23   93 1    
    50   24   25 am   BACKBONE|DICT|INTERRES
    51   24   94 1    
    52   25   26 2    
    53   25   27 1    
    54   27   28 1    
    55   27   29 1    
    56   27   95 1    
    57   28   96 1    
    58   28   97 1    
    59   28   98 1    
    60   29   30 am   BACKBONE|DICT|INTERRES
    61   29   99 1    
    62   30   31 2    
    63   30   32 1    
    64   32   33 1    
    65   32   34 1    
    66   32  100 1    
    67   33  101 1    
    68   33  102 1    
    69   33  103 1    
    70   34   35 am   BACKBONE|DICT|INTERRES
    71   34  104 1    
    72   35   36 2    
    73   37   38 2    
    74   37   39 am   BACKBONE|DICT|INTERRES
    75   39   40 1    
    76   39  105 1    
    77   40   41 1    
    78   40   42 1    
    79   40  106 1    
    80   41  107 1    
    81   41  108 1    
    82   41  109 1    
    83   42   43 2    
    84   42   44 am   BACKBONE|DICT|INTERRES
    85   44   45 1    
    86   44  110 1    
    87   45   46 1    
    88   45   47 1    
    89   45  111 1    
    90   46  112 1    
    91   46  113 1    
    92   46  114 1    
    93   47   48 2    
    94   47   49 am   BACKBONE|DICT|INTERRES
    95   49   50 1    
    96   49  115 1    
    97   50   51 1    
    98   50   52 1    
    99   50  116 1    
   100   51  117 1    
   101   51  118 1    
   102   51  119 1    
   103   52   53 2    
   104   52   54 am   BACKBONE|DICT|INTERRES
   105   54   55 1    
   106   54  120 1    
   107   55   56 1    
   108   55   57 1    
   109   55  121 1    
   110   56  122 1    
   111   56  123 1    
   112   56  124 1    
   113   57   58 2    
   114   57   59 am   BACKBONE|DICT|INTERRES
   115   59   60 1    
   116   59  125 1    
   117   60   61 1    
   118   60   62 1    
   119   60  126 1    
   120   61  127 1    
   121   61  128 1    
   122   61  129 1    
   123   62   63 2    
   124   62   64 am   BACKBONE|DICT|INTERRES
   125   64   65 1    
   126   64  130 1    
   127   65   66 1    
   128   65   69 1    
   129   65  131 1    
   130   66   67 am   BACKBONE|DICT|INTERRES
   131   66   68 2    
   132   67  132 1    
   133   67  133 1    
   134   69   70 1    
   135   69  134 1    
   136   69  135 1    
   137   70   71 1    
   138   71  136 1    
   139   71  137 1    
@<TRIPOS>SUBSTRUCTURE
     1 UNK         1 GROUP             0       ****    0 ROOT    
