@<TRIPOS>MOLECULE
3R137
137   139    1
SMALL
USER_CHARGES


@<TRIPOS>ATOM
      1 CA         30.0222    0.4245   -1.7900 C.3       0 UNK        -0.2020 
      2 C          29.4027   -0.7506   -1.0511 C.2       0 UNK         0.4855 
      3 O          29.0525   -0.6197    0.1216 O.2       0 UNK        -0.5197 
      4 N          29.2667   -1.8940   -1.7361 N.am      1 UNK        -0.4892 
      5 CA         28.6771   -3.1433   -1.2326 C.3       1 UNK         0.0835 
      6 C6         29.5341   -3.8103   -0.1185 C.3       12 UNK        -0.0855 
      7 S7         29.6142   -5.6220   -0.3217 S.3       12 UNK        -0.2931 
      8 C8         31.1186   -5.8091   -1.3397 C.3       12 UNK         0.0378 
      9 C9         30.9904   -5.1144   -2.6907 C.ar      12 UNK        -0.0802 
     10 C10        31.7411   -3.9690   -2.9729 C.ar      12 UNK        -0.0944 
     11 C11        31.6152   -3.3182   -4.2045 C.ar      12 UNK        -0.0787 
     12 C12        30.7296   -3.8319   -5.1600 C.ar      12 UNK        -0.0862 
     13 C13        29.9512   -4.9643   -4.8844 C.ar      12 UNK        -0.0733 
     14 C14        30.1049   -5.6084   -3.6529 C.ar      12 UNK        -0.0832 
     15 C15        28.9625   -5.5462   -5.8958 C.3       12 UNK         0.0240 
     16 S16        28.2903   -4.3598   -7.1089 S.3       12 UNK        -0.2522 
     17 C17        27.1461   -3.3565   -6.0984 C.3       12 UNK        -0.0967 
     18 CA         26.6646   -2.1152   -6.8949 C.3       5 UNK         0.0660 
     19 N          25.2969   -1.7010   -6.5668 N.am      5 UNK        -0.4015 
     20 C          24.5547   -0.9033   -7.3514 C.2       4 UNK         0.4946 
     21 O          24.9467   -0.4386   -8.4223 O.2       4 UNK        -0.5353 
     22 CA         23.1498   -0.5372   -6.8465 C.3       4 UNK         0.0277 
     23 CB         22.1800   -1.7179   -7.0174 C.3       4 UNK        -0.1981 
     24 N          23.1529   -0.0938   -5.4520 N.am      4 UNK        -0.4209 
     25 C          23.7338    1.0346   -5.0203 C.2       3 UNK         0.4942 
     26 O          24.2871    1.8498   -5.7596 O.2       3 UNK        -0.5208 
     27 CA         23.7340    1.2725   -3.4981 C.3       3 UNK         0.0250 
     28 CB         22.4381    1.9761   -3.0643 C.3       3 UNK        -0.1990 
     29 N          23.9348    0.0639   -2.6830 N.am      3 UNK        -0.4232 
     30 C          24.9678   -0.7798   -2.8095 C.2       2 UNK         0.4993 
     31 O          25.8146   -0.6957   -3.7042 O.2       2 UNK        -0.5286 
     32 CA         25.0809   -1.9246   -1.7979 C.3       2 UNK         0.0209 
     33 CB         24.1580   -3.0970   -2.1749 C.3       2 UNK        -0.1931 
     34 N          26.4729   -2.3482   -1.8425 N.am      2 UNK        -0.4546 
     35 C          27.1754   -2.9848   -0.9037 C.2       1 UNK         0.5154 
     36 O          26.6942   -3.4006    0.1522 O.2       1 UNK        -0.5181 
     37 C          27.6539   -0.9393   -6.8010 C.2       5 UNK         0.5014 
     38 O          28.5271   -0.8290   -7.6585 O.2       5 UNK        -0.5248 
     39 N          27.4651   -0.0513   -5.8126 N.am      6 UNK        -0.4434 
     40 CA         28.2183    1.1931   -5.6399 C.3       6 UNK         0.0363 
     41 CB         27.7152    1.9445   -4.3976 C.3       6 UNK        -0.1936 
     42 C          28.1680    2.0944   -6.8817 C.2       6 UNK         0.5081 
     43 O          29.2098    2.5966   -7.3027 O.2       6 UNK        -0.5248 
     44 N          26.9705    2.2389   -7.4650 N.am      7 UNK        -0.4718 
     45 CA         26.7487    2.9475   -8.7231 C.3       7 UNK         0.0273 
     46 CB         25.2465    3.2253   -8.8963 C.3       7 UNK        -0.1935 
     47 C          27.3112    2.1886   -9.9373 C.2       7 UNK         0.5018 
     48 O          27.9985    2.7982  -10.7569 O.2       7 UNK        -0.5186 
     49 N          27.0007    0.8877  -10.0429 N.am      8 UNK        -0.4240 
     50 CA         27.3515    0.0475  -11.1921 C.3       8 UNK         0.0235 
     51 CB         26.5601   -1.2691  -11.1372 C.3       8 UNK        -0.2000 
     52 C          28.8562   -0.2356  -11.3288 C.2       8 UNK         0.4941 
     53 O          29.3910   -0.1141  -12.4319 O.2       8 UNK        -0.5273 
     54 N          29.5083   -0.6240  -10.2254 N.am      9 UNK        -0.4262 
     55 CA         30.9265   -0.9906  -10.1933 C.3       9 UNK         0.0264 
     56 CB         31.1540   -2.0445   -9.0952 C.3       9 UNK        -0.1955 
     57 C          31.8535    0.2156   -9.9749 C.2       9 UNK         0.5031 
     58 O          33.0564    0.0761  -10.2013 O.2       9 UNK        -0.5390 
     59 N          31.2960    1.3564   -9.5351 N.am      10 UNK        -0.4204 
     60 CA         31.9901    2.5978   -9.1686 C.3       10 UNK         0.0237 
     61 CB         32.6312    3.2611  -10.4072 C.3       10 UNK        -0.1985 
     62 C          32.9835    2.3685   -8.0130 C.2       10 UNK         0.4970 
     63 O          34.1742    2.6569   -8.1532 O.2       10 UNK        -0.4914 
     64 N          32.4692    1.8106   -6.9082 N.am      11 UNK        -0.4285 
     65 CA         33.2245    1.4575   -5.6950 C.3       11 UNK         0.1007 
     66 C          33.9623    2.6680   -5.0564 C.2       11 UNK         0.5703 
     67 N          35.1662    2.4604   -4.5400 N.am      11 UNK        -0.7361 
     68 O          33.4334    3.7761   -4.9835 O.2       11 UNK        -0.4986 
     69 C69        32.3202    0.7766   -4.6351 C.3       12 UNK        -0.0947 
     70 S70        31.4768   -0.7263   -5.2364 S.3       12 UNK        -0.2240 
     71 C71        32.4537   -2.0744   -4.4928 C.3       12 UNK         0.0194 
     72 H72        29.5223    1.3528   -1.5149 H         1 UNK         0.0906 
     73 H73        31.0780    0.5157   -1.5369 H         1 UNK         0.0906 
     74 H74        29.9343    0.3050   -2.8686 H         1 UNK         0.0906 
     75 H75        29.6023   -1.9349   -2.6893 H         1 UNK         0.3140 
     76 H76        28.6802   -3.8007   -2.1013 H         1 UNK         0.1085 
     77 H77        30.5558   -3.4279   -0.1408 H         1 UNK         0.0836 
     78 H78        29.1648   -3.5684    0.8797 H         1 UNK         0.0836 
     79 H79        31.9776   -5.4279   -0.7851 H         1 UNK         0.0731 
     80 H80        31.3073   -6.8716   -1.4997 H         1 UNK         0.0731 
     81 H81        32.4233   -3.5816   -2.2284 H         1 UNK         0.1312 
     82 H82        30.6449   -3.3371   -6.1174 H         1 UNK         0.1406 
     83 H83        29.5213   -6.4921   -3.4305 H         1 UNK         0.1631 
     84 H84        29.4689   -6.3416   -6.4438 H         1 UNK         0.0717 
     85 H85        28.1251   -6.0149   -5.3763 H         1 UNK         0.0717 
     86 H86        26.3006   -3.9962   -5.8405 H         1 UNK         0.0934 
     87 H87        27.6171   -3.0788   -5.1531 H         1 UNK         0.0934 
     88 H88        26.6287   -2.3993   -7.9488 H         1 UNK         0.0739 
     89 H89        24.9358   -1.9784   -5.6664 H         1 UNK         0.3093 
     90 H90        22.7863    0.2905   -7.4598 H         1 UNK         0.0818 
     91 H91        21.1613   -1.4348   -6.7514 H         1 UNK         0.0819 
     92 H92        22.1589   -2.0565   -8.0543 H         1 UNK         0.0819 
     93 H93        22.4623   -2.5724   -6.4013 H         1 UNK         0.0819 
     94 H94        22.7185   -0.6997   -4.7715 H         1 UNK         0.3041 
     95 H95        24.5683    1.9426   -3.2816 H         1 UNK         0.0784 
     96 H96        22.2759    2.8869   -3.6429 H         1 UNK         0.0793 
     97 H97        21.5641    1.3394   -3.2070 H         1 UNK         0.0793 
     98 H98        22.4754    2.2661   -2.0140 H         1 UNK         0.0793 
     99 H99        23.2735   -0.0871   -1.9343 H         1 UNK         0.3024 
    100 H100       24.8431   -1.5522   -0.7989 H         1 UNK         0.1171 
    101 H101       24.2634   -3.9247   -1.4732 H         1 UNK         0.0786 
    102 H102       23.1104   -2.7940   -2.1599 H         1 UNK         0.0786 
    103 H103       24.3762   -3.4778   -3.1735 H         1 UNK         0.0786 
    104 H104       26.9603   -1.9752   -2.6490 H         1 UNK         0.2977 
    105 H105       26.7426   -0.2418   -5.1177 H         1 UNK         0.3127 
    106 H106       29.2590    0.9254   -5.4726 H         1 UNK         0.0770 
    107 H107       26.6897    2.2908   -4.5241 H         1 UNK         0.0814 
    108 H108       28.3327    2.8210   -4.1978 H         1 UNK         0.0814 
    109 H109       27.7444    1.3150   -3.5090 H         1 UNK         0.0814 
    110 H110       26.1626    1.8056   -7.0325 H         1 UNK         0.2983 
    111 H111       27.2655    3.9082   -8.6658 H         1 UNK         0.0947 
    112 H112       25.0527    3.7645   -9.8245 H         1 UNK         0.0806 
    113 H113       24.8611    3.8356   -8.0792 H         1 UNK         0.0806 
    114 H114       24.6637    2.3037   -8.9244 H         1 UNK         0.0806 
    115 H115       26.4011    0.4668   -9.3370 H         1 UNK         0.3000 
    116 H116       27.0399    0.5823  -12.0921 H         1 UNK         0.0850 
    117 H117       26.7775   -1.8928  -12.0053 H         1 UNK         0.0810 
    118 H118       25.4854   -1.0861  -11.1307 H         1 UNK         0.0810 
    119 H119       26.8056   -1.8503  -10.2484 H         1 UNK         0.0810 
    120 H120       29.0088   -0.6902   -9.3363 H         1 UNK         0.3040 
    121 H121       31.1984   -1.4433  -11.1492 H         1 UNK         0.0766 
    122 H122       30.4939   -2.9029   -9.2211 H         1 UNK         0.0812 
    123 H123       30.9818   -1.6339   -8.1003 H         1 UNK         0.0812 
    124 H124       32.1793   -2.4156   -9.1169 H         1 UNK         0.0812 
    125 H125       30.2992    1.3508   -9.3645 H         1 UNK         0.3205 
    126 H126       31.2310    3.2852   -8.7945 H         1 UNK         0.0754 
    127 H127       33.0610    4.2299  -10.1498 H         1 UNK         0.0769 
    128 H128       31.8921    3.4319  -11.1900 H         1 UNK         0.0769 
    129 H129       33.4321    2.6535  -10.8294 H         1 UNK         0.0769 
    130 H130       31.4763    1.6271   -6.8804 H         1 UNK         0.2981 
    131 H131       33.9803    0.7333   -6.0049 H         1 UNK         0.0541 
    132 H132       35.6519    3.2303   -4.1070 H         1 UNK         0.3459 
    133 H133       35.6043    1.5535   -4.5831 H         1 UNK         0.3459 
    134 H134       32.8955    0.5310   -3.7410 H         1 UNK         0.0612 
    135 H135       31.5485    1.4752   -4.3070 H         1 UNK         0.0612 
    136 H136       32.9163   -1.7207   -3.5708 H         1 UNK         0.0624 
    137 H137       33.2675   -2.3371   -5.1695 H         1 UNK         0.0624 
@<TRIPOS>BOND
     1    1    2 1    
     2    1   72 1    
     3    1   73 1    
     4    1   74 1    
     5    2    3 2    
     6    2    4 am   BACKBONE|DICT|INTERRES
     7    4    5 1    
     8    4   75 1    
     9    5    6 1    
    10    5   35 1    
    11    5   76 1    
    12    6    7 1    
    13    6   77 1    
    14    6   78 1    
    15    7    8 1    
    16    8    9 1    
    17    8   79 1    
    18    8   80 1    
    19    9   10 ar   
    20    9   14 ar   
    21   10   11 ar   
    22   10   81 1    
    23   11   12 ar   
    24   11   71 1    
    25   12   13 ar   
    26   12   82 1    
    27   13   14 ar   
    28   13   15 1    
    29   14   83 1    
    30   15   16 1    
    31   15   84 1    
    32   15   85 1    
    33   16   17 1    
    34   17   18 1    
    35   17   86 1    
    36   17   87 1    
    37   18   19 1    
    38   18   37 1    
    39   18   88 1    
    40   19   20 am   BACKBONE|DICT|INTERRES
    41   19   89 1    
    42   20   21 2    
    43   20   22 1    
    44   22   23 1    
    45   22   24 1    
    46   22   90 1    
    47   23   91 1    
    48   23   92 1    
    49   23   93 1    
    50   24   25 am   BACKBONE|DICT|INTERRES
    51   24   94 1    
    52   25   26 2    
    53   25   27 1    
    54   27   28 1    
    55   27   29 1    
    56   27   95 1    
    57   28   96 1    
    58   28   97 1    
    59   28   98 1    
    60   29   30 am   BACKBONE|DICT|INTERRES
    61   29   99 1    
    62   30   31 2    
    63   30   32 1    
    64   32   33 1    
    65   32   34 1    
    66   32  100 1    
    67   33  101 1    
    68   33  102 1    
    69   33  103 1    
    70   34   35 am   BACKBONE|DICT|INTERRES
    71   34  104 1    
    72   35   36 2    
    73   37   38 2    
    74   37   39 am   BACKBONE|DICT|INTERRES
    75   39   40 1    
    76   39  105 1    
    77   40   41 1    
    78   40   42 1    
    79   40  106 1    
    80   41  107 1    
    81   41  108 1    
    82   41  109 1    
    83   42   43 2    
    84   42   44 am   BACKBONE|DICT|INTERRES
    85   44   45 1    
    86   44  110 1    
    87   45   46 1    
    88   45   47 1    
    89   45  111 1    
    90   46  112 1    
    91   46  113 1    
    92   46  114 1    
    93   47   48 2    
    94   47   49 am   BACKBONE|DICT|INTERRES
    95   49   50 1    
    96   49  115 1    
    97   50   51 1    
    98   50   52 1    
    99   50  116 1    
   100   51  117 1    
   101   51  118 1    
   102   51  119 1    
   103   52   53 2    
   104   52   54 am   BACKBONE|DICT|INTERRES
   105   54   55 1    
   106   54  120 1    
   107   55   56 1    
   108   55   57 1    
   109   55  121 1    
   110   56  122 1    
   111   56  123 1    
   112   56  124 1    
   113   57   58 2    
   114   57   59 am   BACKBONE|DICT|INTERRES
   115   59   60 1    
   116   59  125 1    
   117   60   61 1    
   118   60   62 1    
   119   60  126 1    
   120   61  127 1    
   121   61  128 1    
   122   61  129 1    
   123   62   63 2    
   124   62   64 am   BACKBONE|DICT|INTERRES
   125   64   65 1    
   126   64  130 1    
   127   65   66 1    
   128   65   69 1    
   129   65  131 1    
   130   66   67 am   BACKBONE|DICT|INTERRES
   131   66   68 2    
   132   67  132 1    
   133   67  133 1    
   134   69   70 1    
   135   69  134 1    
   136   69  135 1    
   137   70   71 1    
   138   71  136 1    
   139   71  137 1    
@<TRIPOS>SUBSTRUCTURE
     1 UNK         1 GROUP             0       ****    0 ROOT    
