@<TRIPOS>MOLECULE
3R137
137   139    1
SMALL
USER_CHARGES


@<TRIPOS>ATOM
      1 CA         28.6202   -2.7096    3.5212 C.3       0 UNK        -0.2020 
      2 C          28.4681   -2.5995    2.0115 C.2       0 UNK         0.4855 
      3 O          28.3389   -1.4923    1.4881 O.2       0 UNK        -0.5197 
      4 N          28.4932   -3.7371    1.3072 N.am      1 UNK        -0.4892 
      5 CA         28.3164   -3.8217   -0.1458 C.3       1 UNK         0.0835 
      6 C6         28.7812   -5.1936   -0.7004 C.3       12 UNK        -0.0855 
      7 S7         30.5103   -5.6781   -0.3384 S.3       12 UNK        -0.2931 
      8 C8         31.4872   -4.1431   -0.5353 C.3       12 UNK         0.0378 
      9 C9         31.2361   -3.3881   -1.8396 C.ar      12 UNK        -0.0802 
     10 C10        31.2320   -1.9906   -1.8261 C.ar      12 UNK        -0.0944 
     11 C11        30.9622   -1.2682   -2.9900 C.ar      12 UNK        -0.0787 
     12 C12        30.6950   -1.9534   -4.1765 C.ar      12 UNK        -0.0862 
     13 C13        30.7058   -3.3539   -4.2162 C.ar      12 UNK        -0.0733 
     14 C14        30.9969   -4.0586   -3.0447 C.ar      12 UNK        -0.0832 
     15 C15        30.4137   -4.1580   -5.4854 C.3       12 UNK         0.0240 
     16 S16        29.7805   -3.2136   -6.9126 S.3       12 UNK        -0.2522 
     17 C17        28.1468   -2.6759   -6.3096 C.3       12 UNK        -0.0967 
     18 CA         27.4601   -1.6548   -7.2491 C.3       5 UNK         0.0660 
     19 N          26.0383   -1.5279   -6.9210 N.am      5 UNK        -0.4015 
     20 C          25.1146   -0.9708   -7.7165 C.2       4 UNK         0.4946 
     21 O          25.3558   -0.5211   -8.8352 O.2       4 UNK        -0.5353 
     22 CA         23.6868   -0.8621   -7.1533 C.3       4 UNK         0.0277 
     23 CB         22.9039   -2.1586   -7.4142 C.3       4 UNK        -0.1981 
     24 N          23.6581   -0.5491   -5.7219 N.am      4 UNK        -0.4209 
     25 C          24.1303    0.5852   -5.1844 C.2       3 UNK         0.4942 
     26 O          24.5916    1.5115   -5.8474 O.2       3 UNK        -0.5208 
     27 CA         24.1357    0.6916   -3.6510 C.3       3 UNK         0.0250 
     28 CB         22.8546    1.3811   -3.1564 C.3       3 UNK        -0.1990 
     29 N          24.2940   -0.5982   -2.9712 N.am      3 UNK        -0.4232 
     30 C          25.3748   -1.3850   -3.0641 C.2       2 UNK         0.4993 
     31 O          26.3575   -1.1328   -3.7679 O.2       2 UNK        -0.5286 
     32 CA         25.3196   -2.7040   -2.2913 C.3       2 UNK         0.0209 
     33 CB         24.8909   -3.8555   -3.2182 C.3       2 UNK        -0.1931 
     34 N          26.6383   -2.9907   -1.7334 N.am      2 UNK        -0.4546 
     35 C          26.8483   -3.5690   -0.5445 C.2       1 UNK         0.5154 
     36 O          25.9395   -3.9412    0.2038 O.2       1 UNK        -0.5181 
     37 C          28.1573   -0.2754   -7.2570 C.2       5 UNK         0.5014 
     38 O          28.9776   -0.0077   -8.1400 O.2       5 UNK        -0.5248 
     39 N          27.7807    0.5947   -6.3067 N.am      6 UNK        -0.4434 
     40 CA         28.2019    1.9962   -6.2586 C.3       6 UNK         0.0363 
     41 CB         27.8027    2.6230   -4.9132 C.3       6 UNK        -0.1936 
     42 C          27.6509    2.8121   -7.4402 C.2       6 UNK         0.5081 
     43 O          28.4190    3.5244   -8.0849 O.2       6 UNK        -0.5248 
     44 N          26.3511    2.6638   -7.7356 N.am      7 UNK        -0.4718 
     45 CA         25.6635    3.3149   -8.8577 C.3       7 UNK         0.0273 
     46 CB         24.1549    3.0362   -8.7718 C.3       7 UNK        -0.1935 
     47 C          26.2119    2.9018  -10.2345 C.2       7 UNK         0.5018 
     48 O          26.3186    3.7493  -11.1214 O.2       7 UNK        -0.5186 
     49 N          26.5875    1.6231  -10.3760 N.am      8 UNK        -0.4240 
     50 CA         27.2710    1.0737  -11.5504 C.3       8 UNK         0.0235 
     51 CB         27.1753   -0.4611  -11.5090 C.3       8 UNK        -0.2000 
     52 C          28.7451    1.5074  -11.6750 C.2       8 UNK         0.4941 
     53 O          29.3487    1.2454  -12.7161 O.2       8 UNK        -0.5273 
     54 N          29.3047    2.1268  -10.6224 N.am      9 UNK        -0.4262 
     55 CA         30.7064    2.5321  -10.4641 C.3       9 UNK         0.0264 
     56 CB         31.0872    3.6322  -11.4780 C.3       9 UNK        -0.1955 
     57 C          31.6824    1.3387  -10.4696 C.2       9 UNK         0.5031 
     58 O          32.8280    1.4842  -10.9002 O.2       9 UNK        -0.5390 
     59 N          31.2166    0.1830   -9.9769 N.am      10 UNK        -0.4204 
     60 CA         31.9993   -1.0474   -9.8444 C.3       10 UNK         0.0237 
     61 CB         31.0845   -2.2470  -10.1409 C.3       10 UNK        -0.1985 
     62 C          32.6787   -1.1639   -8.4660 C.2       10 UNK         0.4970 
     63 O          33.5290   -2.0373   -8.2901 O.2       10 UNK        -0.4914 
     64 N          32.3119   -0.2790   -7.5288 N.am      11 UNK        -0.4285 
     65 CA         32.9400   -0.0898   -6.2151 C.3       11 UNK         0.1007 
     66 C          34.4494    0.2695   -6.3218 C.2       11 UNK         0.5703 
     67 N          35.2977   -0.3391   -5.5039 N.am      11 UNK        -0.7361 
     68 O          34.8479    1.1183   -7.1175 O.2       11 UNK        -0.4986 
     69 C69        32.1513    0.9815   -5.4166 C.3       12 UNK        -0.0947 
     70 S70        32.4794    0.9622   -3.6213 S.3       12 UNK        -0.2240 
     71 C71        30.9398    0.2520   -2.9584 C.3       12 UNK         0.0194 
     72 H72        27.7397   -2.3022    4.0173 H         1 UNK         0.0906 
     73 H73        29.4907   -2.1443    3.8529 H         1 UNK         0.0906 
     74 H74        28.7440   -3.7430    3.8448 H         1 UNK         0.0906 
     75 H75        28.5856   -4.6218    1.7857 H         1 UNK         0.3140 
     76 H76        28.9068   -3.0262   -0.5993 H         1 UNK         0.1085 
     77 H77        28.6581   -5.2183   -1.7850 H         1 UNK         0.0836 
     78 H78        28.1388   -5.9892   -0.3169 H         1 UNK         0.0836 
     79 H79        31.2836   -3.4988    0.3215 H         1 UNK         0.0731 
     80 H80        32.5466   -4.3963   -0.4803 H         1 UNK         0.0731 
     81 H81        31.4266   -1.4614   -0.9029 H         1 UNK         0.1312 
     82 H82        30.4818   -1.3816   -5.0666 H         1 UNK         0.1406 
     83 H83        31.0140   -5.1399   -3.0675 H         1 UNK         0.1631 
     84 H84        29.6983   -4.9492   -5.2553 H         1 UNK         0.0717 
     85 H85        31.3344   -4.6543   -5.7946 H         1 UNK         0.0717 
     86 H86        27.5308   -3.5728   -6.2258 H         1 UNK         0.0934 
     87 H87        28.2271   -2.2779   -5.2976 H         1 UNK         0.0934 
     88 H88        27.5175   -2.0463   -8.2674 H         1 UNK         0.0739 
     89 H89        25.7662   -1.8162   -5.9920 H         1 UNK         0.3093 
     90 H90        23.1851   -0.0489   -7.6818 H         1 UNK         0.0818 
     91 H91        22.8978   -2.4017   -8.4778 H         1 UNK         0.0819 
     92 H92        23.3382   -3.0097   -6.8881 H         1 UNK         0.0819 
     93 H93        21.8641   -2.0642   -7.1006 H         1 UNK         0.0819 
     94 H94        23.2770   -1.2505   -5.1042 H         1 UNK         0.3041 
     95 H95        24.9879    1.3159   -3.3738 H         1 UNK         0.0784 
     96 H96        22.7277    2.3547   -3.6325 H         1 UNK         0.0793 
     97 H97        21.9643    0.7914   -3.3790 H         1 UNK         0.0793 
     98 H98        22.8853    1.5519   -2.0801 H         1 UNK         0.0793 
     99 H99        23.5266   -0.8899   -2.3822 H         1 UNK         0.3024 
    100 H100       24.5902   -2.6020   -1.4838 H         1 UNK         0.1171 
    101 H101       23.9099   -3.6657   -3.6556 H         1 UNK         0.0786 
    102 H102       24.8234   -4.7969   -2.6725 H         1 UNK         0.0786 
    103 H103       25.5954   -3.9965   -4.0391 H         1 UNK         0.0786 
    104 H104       27.4168   -2.6591   -2.2893 H         1 UNK         0.2977 
    105 H105       27.1086    0.2935   -5.6131 H         1 UNK         0.3127 
    106 H106       29.2899    2.0217   -6.3297 H         1 UNK         0.0770 
    107 H107       28.2144    2.0638   -4.0736 H         1 UNK         0.0814 
    108 H108       28.1773    3.6445   -4.8369 H         1 UNK         0.0814 
    109 H109       26.7213    2.6658   -4.7866 H         1 UNK         0.0814 
    110 H110       25.7716    2.1009   -7.1146 H         1 UNK         0.2983 
    111 H111       25.8178    4.3912   -8.7550 H         1 UNK         0.0947 
    112 H112       23.9379    1.9713   -8.8566 H         1 UNK         0.0806 
    113 H113       23.6171    3.5444   -9.5732 H         1 UNK         0.0806 
    114 H114       23.7392    3.3883   -7.8275 H         1 UNK         0.0806 
    115 H115       26.3771    0.9690   -9.6266 H         1 UNK         0.3000 
    116 H116       26.7527    1.4266  -12.4444 H         1 UNK         0.0850 
    117 H117       27.6472   -0.9099  -12.3841 H         1 UNK         0.0810 
    118 H118       26.1372   -0.7935  -11.4967 H         1 UNK         0.0810 
    119 H119       27.6685   -0.8702  -10.6262 H         1 UNK         0.0810 
    120 H120       28.7186    2.3134   -9.8162 H         1 UNK         0.3040 
    121 H121       30.7790    2.9697   -9.4675 H         1 UNK         0.0766 
    122 H122       31.1123    3.2522  -12.4996 H         1 UNK         0.0812 
    123 H123       32.0752    4.0394  -11.2599 H         1 UNK         0.0812 
    124 H124       30.3815    4.4623  -11.4449 H         1 UNK         0.0812 
    125 H125       30.2779    0.1617   -9.5832 H         1 UNK         0.3205 
    126 H126       32.8005   -1.0539  -10.5865 H         1 UNK         0.0754 
    127 H127       31.5822   -3.1932   -9.9240 H         1 UNK         0.0769 
    128 H128       30.7959   -2.2657  -11.1919 H         1 UNK         0.0769 
    129 H129       30.1685   -2.2110   -9.5525 H         1 UNK         0.0769 
    130 H130       31.5970    0.3874   -7.7753 H         1 UNK         0.2981 
    131 H131       32.8558   -1.0463   -5.6972 H         1 UNK         0.0541 
    132 H132       36.2774   -0.1080   -5.5518 H         1 UNK         0.3459 
    133 H133       34.9740   -1.0174   -4.8321 H         1 UNK         0.3459 
    134 H134       31.0821    0.8369   -5.5655 H         1 UNK         0.0612 
    135 H135       32.3637    1.9828   -5.7963 H         1 UNK         0.0612 
    136 H136       30.0771    0.6275   -3.5094 H         1 UNK         0.0624 
    137 H137       30.8144    0.6027   -1.9329 H         1 UNK         0.0624 
@<TRIPOS>BOND
     1    1    2 1    
     2    1   72 1    
     3    1   73 1    
     4    1   74 1    
     5    2    3 2    
     6    2    4 am   BACKBONE|DICT|INTERRES
     7    4    5 1    
     8    4   75 1    
     9    5    6 1    
    10    5   35 1    
    11    5   76 1    
    12    6    7 1    
    13    6   77 1    
    14    6   78 1    
    15    7    8 1    
    16    8    9 1    
    17    8   79 1    
    18    8   80 1    
    19    9   10 ar   
    20    9   14 ar   
    21   10   11 ar   
    22   10   81 1    
    23   11   12 ar   
    24   11   71 1    
    25   12   13 ar   
    26   12   82 1    
    27   13   14 ar   
    28   13   15 1    
    29   14   83 1    
    30   15   16 1    
    31   15   84 1    
    32   15   85 1    
    33   16   17 1    
    34   17   18 1    
    35   17   86 1    
    36   17   87 1    
    37   18   19 1    
    38   18   37 1    
    39   18   88 1    
    40   19   20 am   BACKBONE|DICT|INTERRES
    41   19   89 1    
    42   20   21 2    
    43   20   22 1    
    44   22   23 1    
    45   22   24 1    
    46   22   90 1    
    47   23   91 1    
    48   23   92 1    
    49   23   93 1    
    50   24   25 am   BACKBONE|DICT|INTERRES
    51   24   94 1    
    52   25   26 2    
    53   25   27 1    
    54   27   28 1    
    55   27   29 1    
    56   27   95 1    
    57   28   96 1    
    58   28   97 1    
    59   28   98 1    
    60   29   30 am   BACKBONE|DICT|INTERRES
    61   29   99 1    
    62   30   31 2    
    63   30   32 1    
    64   32   33 1    
    65   32   34 1    
    66   32  100 1    
    67   33  101 1    
    68   33  102 1    
    69   33  103 1    
    70   34   35 am   BACKBONE|DICT|INTERRES
    71   34  104 1    
    72   35   36 2    
    73   37   38 2    
    74   37   39 am   BACKBONE|DICT|INTERRES
    75   39   40 1    
    76   39  105 1    
    77   40   41 1    
    78   40   42 1    
    79   40  106 1    
    80   41  107 1    
    81   41  108 1    
    82   41  109 1    
    83   42   43 2    
    84   42   44 am   BACKBONE|DICT|INTERRES
    85   44   45 1    
    86   44  110 1    
    87   45   46 1    
    88   45   47 1    
    89   45  111 1    
    90   46  112 1    
    91   46  113 1    
    92   46  114 1    
    93   47   48 2    
    94   47   49 am   BACKBONE|DICT|INTERRES
    95   49   50 1    
    96   49  115 1    
    97   50   51 1    
    98   50   52 1    
    99   50  116 1    
   100   51  117 1    
   101   51  118 1    
   102   51  119 1    
   103   52   53 2    
   104   52   54 am   BACKBONE|DICT|INTERRES
   105   54   55 1    
   106   54  120 1    
   107   55   56 1    
   108   55   57 1    
   109   55  121 1    
   110   56  122 1    
   111   56  123 1    
   112   56  124 1    
   113   57   58 2    
   114   57   59 am   BACKBONE|DICT|INTERRES
   115   59   60 1    
   116   59  125 1    
   117   60   61 1    
   118   60   62 1    
   119   60  126 1    
   120   61  127 1    
   121   61  128 1    
   122   61  129 1    
   123   62   63 2    
   124   62   64 am   BACKBONE|DICT|INTERRES
   125   64   65 1    
   126   64  130 1    
   127   65   66 1    
   128   65   69 1    
   129   65  131 1    
   130   66   67 am   BACKBONE|DICT|INTERRES
   131   66   68 2    
   132   67  132 1    
   133   67  133 1    
   134   69   70 1    
   135   69  134 1    
   136   69  135 1    
   137   70   71 1    
   138   71  136 1    
   139   71  137 1    
@<TRIPOS>SUBSTRUCTURE
     1 UNK         1 GROUP             0       ****    0 ROOT    
