@<TRIPOS>MOLECULE
3R137
137   139    1
SMALL
USER_CHARGES


@<TRIPOS>ATOM
      1 CA         30.1422    0.4063   -1.3114 C.3       0 UNK        -0.2020 
      2 C          29.4779   -0.8467   -1.8594 C.2       0 UNK         0.4855 
      3 O          29.2002   -0.9203   -3.0524 O.2       0 UNK        -0.5197 
      4 N          29.2223   -1.8375   -0.9960 N.am      1 UNK        -0.4892 
      5 CA         28.6055   -3.1177   -1.3740 C.3       1 UNK         0.0835 
      6 C6         29.0537   -4.2479   -0.4069 C.3       12 UNK        -0.0855 
      7 S7         29.2487   -5.8742   -1.2138 S.3       12 UNK        -0.2931 
      8 C8         30.9370   -5.7699   -1.9110 C.3       12 UNK         0.0378 
      9 C9         30.9850   -4.8622   -3.1334 C.ar      12 UNK        -0.0802 
     10 C10        31.7375   -3.6805   -3.1234 C.ar      12 UNK        -0.0944 
     11 C11        31.7037   -2.8031   -4.2145 C.ar      12 UNK        -0.0787 
     12 C12        30.8845   -3.1174   -5.3053 C.ar      12 UNK        -0.0862 
     13 C13        30.1632   -4.3111   -5.3491 C.ar      12 UNK        -0.0733 
     14 C14        30.2313   -5.1884   -4.2652 C.ar      12 UNK        -0.0832 
     15 C15        29.3164   -4.6419   -6.5718 C.3       12 UNK         0.0240 
     16 S16        27.5691   -4.9658   -6.1719 S.3       12 UNK        -0.2522 
     17 C17        27.0401   -3.3837   -5.4382 C.3       12 UNK        -0.0967 
     18 CA         26.5676   -2.3567   -6.5029 C.3       5 UNK         0.0660 
     19 N          25.2417   -1.8212   -6.1947 N.am      5 UNK        -0.4015 
     20 C          24.3876   -1.3323   -7.1034 C.2       4 UNK         0.4946 
     21 O          24.5952   -1.3426   -8.3167 O.2       4 UNK        -0.5353 
     22 CA         23.0813   -0.7144   -6.5736 C.3       4 UNK         0.0277 
     23 CB         21.9705   -1.7751   -6.5122 C.3       4 UNK        -0.1981 
     24 N          23.2259   -0.0841   -5.2586 N.am      4 UNK        -0.4209 
     25 C          23.9676    1.0065   -5.0221 C.2       3 UNK         0.4942 
     26 O          24.5965    1.6116   -5.8909 O.2       3 UNK        -0.5208 
     27 CA         24.0505    1.4841   -3.5623 C.3       3 UNK         0.0250 
     28 CB         22.8522    2.3876   -3.2291 C.3       3 UNK        -0.1990 
     29 N          24.1598    0.4233   -2.5497 N.am      3 UNK        -0.4232 
     30 C          25.0560   -0.5751   -2.5382 C.2       2 UNK         0.4993 
     31 O          25.7987   -0.8399   -3.4864 O.2       2 UNK        -0.5286 
     32 CA         25.1250   -1.3990   -1.2399 C.3       2 UNK         0.0209 
     33 CB         24.0222   -2.4765   -1.1866 C.3       2 UNK        -0.1931 
     34 N          26.4773   -1.9348   -1.0150 N.am      2 UNK        -0.4546 
     35 C          27.0707   -3.0169   -1.5471 C.2       1 UNK         0.5154 
     36 O          26.4775   -3.9000   -2.1660 O.2       1 UNK        -0.5181 
     37 C          27.5688   -1.1997   -6.6654 C.2       5 UNK         0.5014 
     38 O          28.3300   -1.1880   -7.6348 O.2       5 UNK        -0.5248 
     39 N          27.5117   -0.2332   -5.7353 N.am      6 UNK        -0.4434 
     40 CA         28.3434    0.9708   -5.6868 C.3       6 UNK         0.0363 
     41 CB         27.9110    1.8499   -4.5000 C.3       6 UNK        -0.1936 
     42 C          28.2916    1.7868   -6.9842 C.2       6 UNK         0.5081 
     43 O          29.3402    2.0916   -7.5519 O.2       6 UNK        -0.5248 
     44 N          27.0701    2.0952   -7.4426 N.am      7 UNK        -0.4718 
     45 CA         26.8118    2.8617   -8.6629 C.3       7 UNK         0.0273 
     46 CB         25.3254    3.2494   -8.7097 C.3       7 UNK        -0.1935 
     47 C          27.2136    2.1250   -9.9513 C.2       7 UNK         0.5018 
     48 O          27.5793    2.7827  -10.9261 O.2       7 UNK        -0.5186 
     49 N          27.1336    0.7875   -9.9404 N.am      8 UNK        -0.4240 
     50 CA         27.5053   -0.0645  -11.0687 C.3       8 UNK         0.0235 
     51 CB         26.8287   -1.4383  -10.9277 C.3       8 UNK        -0.2000 
     52 C          29.0277   -0.2145  -11.1995 C.2       8 UNK         0.4941 
     53 O          29.5596   -0.0486  -12.2980 O.2       8 UNK        -0.5273 
     54 N          29.6962   -0.5428  -10.0866 N.am      9 UNK        -0.4262 
     55 CA         31.1292   -0.8412  -10.0522 C.3       9 UNK         0.0264 
     56 CB         31.3924   -1.8162   -8.9009 C.3       9 UNK        -0.1955 
     57 C          32.0255    0.3996   -9.9040 C.2       9 UNK         0.5031 
     58 O          33.2076    0.3077  -10.2383 O.2       9 UNK        -0.5390 
     59 N          31.4699    1.5133   -9.4016 N.am      10 UNK        -0.4204 
     60 CA         32.1496    2.7683   -9.0583 C.3       10 UNK         0.0237 
     61 CB         32.7826    3.4346  -10.3000 C.3       10 UNK        -0.1985 
     62 C          33.1339    2.5778   -7.8881 C.2       10 UNK         0.4970 
     63 O          34.3236    2.8731   -8.0198 O.2       10 UNK        -0.4914 
     64 N          32.6069    2.0910   -6.7601 N.am      11 UNK        -0.4285 
     65 CA         33.3266    1.8958   -5.4932 C.3       11 UNK         0.1007 
     66 C          32.4158    2.1738   -4.2694 C.2       11 UNK         0.5703 
     67 N          32.9738    2.1855   -3.0659 N.am      11 UNK        -0.7361 
     68 O          31.2152    2.3974   -4.3951 O.2       11 UNK        -0.4986 
     69 C69        34.0851    0.5377   -5.4130 C.3       12 UNK        -0.0947 
     70 S70        33.0881   -0.9369   -5.8147 S.3       12 UNK        -0.2240 
     71 C71        32.5133   -1.5031   -4.1742 C.3       12 UNK         0.0194 
     72 H72        29.9993    0.5039   -0.2356 H         1 UNK         0.0906 
     73 H73        31.2117    0.3775   -1.5154 H         1 UNK         0.0906 
     74 H74        29.7292    1.2939   -1.7905 H         1 UNK         0.0906 
     75 H75        29.4773   -1.7336   -0.0235 H         1 UNK         0.3140 
     76 H76        28.9710   -3.3579   -2.3726 H         1 UNK         0.1085 
     77 H77        30.0153   -4.0042    0.0480 H         1 UNK         0.0836 
     78 H78        28.3583   -4.3486    0.4287 H         1 UNK         0.0836 
     79 H79        31.6330   -5.4341   -1.1408 H         1 UNK         0.0731 
     80 H80        31.2605   -6.7703   -2.2020 H         1 UNK         0.0731 
     81 H81        32.3278   -3.4282   -2.2532 H         1 UNK         0.1312 
     82 H82        30.8013   -2.4278   -6.1280 H         1 UNK         0.1406 
     83 H83        29.6550   -6.1038   -4.2810 H         1 UNK         0.1631 
     84 H84        29.7338   -5.5235   -7.0595 H         1 UNK         0.0717 
     85 H85        29.3593   -3.8365   -7.3064 H         1 UNK         0.0717 
     86 H86        26.2190   -3.6309   -4.7640 H         1 UNK         0.0934 
     87 H87        27.8207   -2.9907   -4.7822 H         1 UNK         0.0934 
     88 H88        26.5010   -2.8559   -7.4724 H         1 UNK         0.0739 
     89 H89        25.0388   -1.6871   -5.2107 H         1 UNK         0.3093 
     90 H90        22.7769    0.0592   -7.2822 H         1 UNK         0.0818 
     91 H91        21.0160   -1.3348   -6.2232 H         1 UNK         0.0819 
     92 H92        21.8264   -2.2445   -7.4865 H         1 UNK         0.0819 
     93 H93        22.2056   -2.5677   -5.8007 H         1 UNK         0.0819 
     94 H94        22.7463   -0.5167   -4.4825 H         1 UNK         0.3041 
     95 H95        24.9530    2.0900   -3.4747 H         1 UNK         0.0784 
     96 H96        22.7583    3.1962   -3.9559 H         1 UNK         0.0793 
     97 H97        21.9128    1.8333   -3.2354 H         1 UNK         0.0793 
     98 H98        22.9630    2.8506   -2.2484 H         1 UNK         0.0793 
     99 H99        23.5714    0.5387   -1.7368 H         1 UNK         0.3024 
    100 H100       24.9526   -0.7113   -0.4100 H         1 UNK         0.1171 
    101 H101       23.0336   -2.0187   -1.1384 H         1 UNK         0.0786 
    102 H102       24.1275   -3.1118   -0.3072 H         1 UNK         0.0786 
    103 H103       24.0320   -3.1170   -2.0690 H         1 UNK         0.0786 
    104 H104       27.1034   -1.2931   -0.5496 H         1 UNK         0.2977 
    105 H105       26.8905   -0.3749   -4.9412 H         1 UNK         0.3127 
    106 H106       29.3726    0.6445   -5.5242 H         1 UNK         0.0770 
    107 H107       26.9190    2.2725   -4.6490 H         1 UNK         0.0814 
    108 H108       28.5964    2.6869   -4.3673 H         1 UNK         0.0814 
    109 H109       27.8961    1.2905   -3.5662 H         1 UNK         0.0814 
    110 H110       26.2572    1.8141   -6.8985 H         1 UNK         0.2983 
    111 H111       27.4048    3.7776   -8.6133 H         1 UNK         0.0947 
    112 H112       25.1024    3.8438   -9.5969 H         1 UNK         0.0806 
    113 H113       25.0437    3.8448   -7.8409 H         1 UNK         0.0806 
    114 H114       24.6809    2.3694   -8.7333 H         1 UNK         0.0806 
    115 H115       26.8434    0.3263   -9.0890 H         1 UNK         0.3000 
    116 H116       27.1359    0.3962  -11.9878 H         1 UNK         0.0850 
    117 H117       27.0928   -2.0913  -11.7605 H         1 UNK         0.0810 
    118 H118       25.7426   -1.3441  -10.9219 H         1 UNK         0.0810 
    119 H119       27.1217   -1.9463  -10.0082 H         1 UNK         0.0810 
    120 H120       29.1780   -0.6835   -9.2199 H         1 UNK         0.3040 
    121 H121       31.4112   -1.3387  -10.9829 H         1 UNK         0.0766 
    122 H122       32.4480   -2.0844   -8.8377 H         1 UNK         0.0812 
    123 H123       30.8241   -2.7387   -9.0171 H         1 UNK         0.0812 
    124 H124       31.1105   -1.3579   -7.9553 H         1 UNK         0.0812 
    125 H125       30.5052    1.4638   -9.0874 H         1 UNK         0.3205 
    126 H126       31.3738    3.4448   -8.6968 H         1 UNK         0.0754 
    127 H127       33.1719    4.4227  -10.0520 H         1 UNK         0.0769 
    128 H128       32.0490    3.5652  -11.0956 H         1 UNK         0.0769 
    129 H129       33.6131    2.8537  -10.7015 H         1 UNK         0.0769 
    130 H130       31.6092    1.9226   -6.7110 H         1 UNK         0.2981 
    131 H131       34.0793    2.6846   -5.4371 H         1 UNK         0.0541 
    132 H132       33.9613    2.0258   -2.9444 H         1 UNK         0.3459 
    133 H133       32.3979    2.3912   -2.2660 H         1 UNK         0.3459 
    134 H134       34.5589    0.4008   -4.4399 H         1 UNK         0.0612 
    135 H135       34.9084    0.5591   -6.1282 H         1 UNK         0.0612 
    136 H136       33.3822   -1.6270   -3.5264 H         1 UNK         0.0624 
    137 H137       31.8955   -0.7228   -3.7311 H         1 UNK         0.0624 
@<TRIPOS>BOND
     1    1    2 1    
     2    1   72 1    
     3    1   73 1    
     4    1   74 1    
     5    2    3 2    
     6    2    4 am   BACKBONE|DICT|INTERRES
     7    4    5 1    
     8    4   75 1    
     9    5    6 1    
    10    5   35 1    
    11    5   76 1    
    12    6    7 1    
    13    6   77 1    
    14    6   78 1    
    15    7    8 1    
    16    8    9 1    
    17    8   79 1    
    18    8   80 1    
    19    9   10 ar   
    20    9   14 ar   
    21   10   11 ar   
    22   10   81 1    
    23   11   12 ar   
    24   11   71 1    
    25   12   13 ar   
    26   12   82 1    
    27   13   14 ar   
    28   13   15 1    
    29   14   83 1    
    30   15   16 1    
    31   15   84 1    
    32   15   85 1    
    33   16   17 1    
    34   17   18 1    
    35   17   86 1    
    36   17   87 1    
    37   18   19 1    
    38   18   37 1    
    39   18   88 1    
    40   19   20 am   BACKBONE|DICT|INTERRES
    41   19   89 1    
    42   20   21 2    
    43   20   22 1    
    44   22   23 1    
    45   22   24 1    
    46   22   90 1    
    47   23   91 1    
    48   23   92 1    
    49   23   93 1    
    50   24   25 am   BACKBONE|DICT|INTERRES
    51   24   94 1    
    52   25   26 2    
    53   25   27 1    
    54   27   28 1    
    55   27   29 1    
    56   27   95 1    
    57   28   96 1    
    58   28   97 1    
    59   28   98 1    
    60   29   30 am   BACKBONE|DICT|INTERRES
    61   29   99 1    
    62   30   31 2    
    63   30   32 1    
    64   32   33 1    
    65   32   34 1    
    66   32  100 1    
    67   33  101 1    
    68   33  102 1    
    69   33  103 1    
    70   34   35 am   BACKBONE|DICT|INTERRES
    71   34  104 1    
    72   35   36 2    
    73   37   38 2    
    74   37   39 am   BACKBONE|DICT|INTERRES
    75   39   40 1    
    76   39  105 1    
    77   40   41 1    
    78   40   42 1    
    79   40  106 1    
    80   41  107 1    
    81   41  108 1    
    82   41  109 1    
    83   42   43 2    
    84   42   44 am   BACKBONE|DICT|INTERRES
    85   44   45 1    
    86   44  110 1    
    87   45   46 1    
    88   45   47 1    
    89   45  111 1    
    90   46  112 1    
    91   46  113 1    
    92   46  114 1    
    93   47   48 2    
    94   47   49 am   BACKBONE|DICT|INTERRES
    95   49   50 1    
    96   49  115 1    
    97   50   51 1    
    98   50   52 1    
    99   50  116 1    
   100   51  117 1    
   101   51  118 1    
   102   51  119 1    
   103   52   53 2    
   104   52   54 am   BACKBONE|DICT|INTERRES
   105   54   55 1    
   106   54  120 1    
   107   55   56 1    
   108   55   57 1    
   109   55  121 1    
   110   56  122 1    
   111   56  123 1    
   112   56  124 1    
   113   57   58 2    
   114   57   59 am   BACKBONE|DICT|INTERRES
   115   59   60 1    
   116   59  125 1    
   117   60   61 1    
   118   60   62 1    
   119   60  126 1    
   120   61  127 1    
   121   61  128 1    
   122   61  129 1    
   123   62   63 2    
   124   62   64 am   BACKBONE|DICT|INTERRES
   125   64   65 1    
   126   64  130 1    
   127   65   66 1    
   128   65   69 1    
   129   65  131 1    
   130   66   67 am   BACKBONE|DICT|INTERRES
   131   66   68 2    
   132   67  132 1    
   133   67  133 1    
   134   69   70 1    
   135   69  134 1    
   136   69  135 1    
   137   70   71 1    
   138   71  136 1    
   139   71  137 1    
@<TRIPOS>SUBSTRUCTURE
     1 UNK         1 GROUP             0       ****    0 ROOT    
