@<TRIPOS>MOLECULE
3R137
137   139    1
SMALL
USER_CHARGES


@<TRIPOS>ATOM
      1 CA         29.6940   -2.8981   -4.9007 C.3       0 UNK        -0.2020 
      2 C          29.0052   -4.0193   -4.1401 C.2       0 UNK         0.4855 
      3 O          28.4365   -4.9190   -4.7581 O.2       0 UNK        -0.5197 
      4 N          29.0435   -3.9701   -2.8015 N.am      1 UNK        -0.4892 
      5 CA         28.4349   -4.9645   -1.9029 C.3       1 UNK         0.0835 
      6 C6         29.0378   -4.9107   -0.4755 C.3       12 UNK        -0.0855 
      7 S7         30.7662   -5.5003   -0.4368 S.3       12 UNK        -0.2931 
      8 C8         31.6642   -4.0710    0.2444 C.3       12 UNK         0.0378 
      9 C9         31.8435   -2.9765   -0.7947 C.ar      12 UNK        -0.0802 
     10 C10        32.8690   -3.0679   -1.7414 C.ar      12 UNK        -0.0944 
     11 C11        33.0398   -2.0673   -2.7035 C.ar      12 UNK        -0.0787 
     12 C12        32.1732   -0.9716   -2.7116 C.ar      12 UNK        -0.0862 
     13 C13        31.1255   -0.8867   -1.7909 C.ar      12 UNK        -0.0733 
     14 C14        30.9811   -1.8778   -0.8170 C.ar      12 UNK        -0.0832 
     15 C15        30.1195    0.2472   -1.8788 C.3       12 UNK         0.0240 
     16 S16        28.5026   -0.3929   -2.4108 S.3       12 UNK        -0.2522 
     17 C17        27.6602    1.1417   -2.9087 C.3       12 UNK        -0.0967 
     18 CA         27.6489    1.3085   -4.4470 C.3       5 UNK         0.0660 
     19 N          26.8910    0.2433   -5.1162 N.am      5 UNK        -0.4015 
     20 C          26.8348    0.0722   -6.4458 C.2       4 UNK         0.4946 
     21 O          27.5067    0.7342   -7.2349 O.2       4 UNK        -0.5353 
     22 CA         25.8396   -0.9570   -7.0162 C.3       4 UNK         0.0277 
     23 CB         26.5730   -2.2559   -7.3867 C.3       4 UNK        -0.1981 
     24 N          24.7143   -1.2685   -6.1312 N.am      4 UNK        -0.4209 
     25 C          23.8691   -0.3801   -5.5857 C.2       3 UNK         0.4942 
     26 O          23.8661    0.8178   -5.8707 O.2       3 UNK        -0.5208 
     27 CA         22.9284   -0.8912   -4.4755 C.3       3 UNK         0.0250 
     28 CB         21.5080   -1.0865   -5.0288 C.3       3 UNK        -0.1990 
     29 N          23.3654   -2.1300   -3.8114 N.am      3 UNK        -0.4232 
     30 C          24.5547   -2.3356   -3.2231 C.2       2 UNK         0.4993 
     31 O          25.4394   -1.4777   -3.1695 O.2       2 UNK        -0.5286 
     32 CA         24.8253   -3.7427   -2.6666 C.3       2 UNK         0.0209 
     33 CB         24.2790   -4.8497   -3.6023 C.3       2 UNK        -0.1931 
     34 N          26.2694   -3.8969   -2.4807 N.am      2 UNK        -0.4546 
     35 C          26.8880   -4.9102   -1.8615 C.2       1 UNK         0.5154 
     36 O          26.2795   -5.8086   -1.2766 O.2       1 UNK        -0.5181 
     37 C          27.1685    2.7264   -4.8306 C.2       5 UNK         0.5014 
     38 O          27.9809    3.6521   -4.8092 O.2       5 UNK        -0.5248 
     39 N          25.8821    2.8845   -5.1837 N.am      6 UNK        -0.4434 
     40 CA         25.3271    4.1459   -5.6817 C.3       6 UNK         0.0363 
     41 CB         23.8112    4.1798   -5.4289 C.3       6 UNK        -0.1936 
     42 C          25.6301    4.3638   -7.1744 C.2       6 UNK         0.5081 
     43 O          25.7603    5.5120   -7.5991 O.2       6 UNK        -0.5248 
     44 N          25.7320    3.2704   -7.9441 N.am      7 UNK        -0.4718 
     45 CA         26.0637    3.2904   -9.3714 C.3       7 UNK         0.0273 
     46 CB         25.6054    1.9750  -10.0231 C.3       7 UNK        -0.1935 
     47 C          27.5633    3.5171   -9.6228 C.2       7 UNK         0.5018 
     48 O          27.9150    4.1744  -10.6019 O.2       7 UNK        -0.5186 
     49 N          28.4072    2.9451   -8.7508 N.am      8 UNK        -0.4240 
     50 CA         29.8771    2.9630   -8.7437 C.3       8 UNK         0.0235 
     51 CB         30.4322    4.4019   -8.7187 C.3       8 UNK        -0.2000 
     52 C          30.5413    2.1061   -9.8409 C.2       8 UNK         0.4941 
     53 O          31.7680    1.9831   -9.8386 O.2       8 UNK        -0.5273 
     54 N          29.7477    1.4919  -10.7295 N.am      9 UNK        -0.4262 
     55 CA         30.1931    0.5008  -11.7092 C.3       9 UNK         0.0264 
     56 CB         29.0721    0.2576  -12.7328 C.3       9 UNK        -0.1955 
     57 C          30.5669   -0.7993  -10.9831 C.2       9 UNK         0.5031 
     58 O          29.7459   -1.3084  -10.2168 O.2       9 UNK        -0.5390 
     59 N          31.8040   -1.2769  -11.1905 N.am      10 UNK        -0.4204 
     60 CA         32.4376   -2.3923  -10.4661 C.3       10 UNK         0.0237 
     61 CB         31.8082   -3.7395  -10.8823 C.3       10 UNK        -0.1985 
     62 C          32.4293   -2.1654   -8.9375 C.2       10 UNK         0.4970 
     63 O          32.0431   -3.0585   -8.1845 O.2       10 UNK        -0.4914 
     64 N          32.7942   -0.9356   -8.5483 N.am      11 UNK        -0.4285 
     65 CA         32.6778   -0.3141   -7.2185 C.3       11 UNK         0.1007 
     66 C          31.2339   -0.1190   -6.6675 C.2       11 UNK         0.5703 
     67 N          30.1821   -0.4201   -7.4188 N.am      11 UNK        -0.7361 
     68 O          31.0617    0.4070   -5.5730 O.2       11 UNK        -0.4986 
     69 C69        33.7380   -0.7828   -6.1758 C.3       12 UNK        -0.0947 
     70 S70        33.4980   -2.4294   -5.4201 S.3       12 UNK        -0.2240 
     71 C71        34.1526   -2.1758   -3.7369 C.3       12 UNK         0.0194 
     72 H72        28.9748   -2.1292   -5.1799 H         1 UNK         0.0906 
     73 H73        30.4725   -2.4290   -4.3025 H         1 UNK         0.0906 
     74 H74        30.1599   -3.2774   -5.8105 H         1 UNK         0.0906 
     75 H75        29.5408   -3.2142   -2.3494 H         1 UNK         0.3140 
     76 H76        28.6656   -5.9498   -2.3149 H         1 UNK         0.1085 
     77 H77        28.4802   -5.5554    0.2071 H         1 UNK         0.0836 
     78 H78        28.9600   -3.9049   -0.0611 H         1 UNK         0.0836 
     79 H79        32.6437   -4.4049    0.5902 H         1 UNK         0.0731 
     80 H80        31.1453   -3.6931    1.1269 H         1 UNK         0.0731 
     81 H81        33.5296   -3.9243   -1.7302 H         1 UNK         0.1312 
     82 H82        32.2937   -0.2036   -3.4615 H         1 UNK         0.1406 
     83 H83        30.1767   -1.8041   -0.0975 H         1 UNK         0.1631 
     84 H84        30.4592    1.0048   -2.5875 H         1 UNK         0.0717 
     85 H85        30.0217    0.7385   -0.9098 H         1 UNK         0.0717 
     86 H86        26.6411    1.1170   -2.5177 H         1 UNK         0.0934 
     87 H87        28.1504    1.9884   -2.4234 H         1 UNK         0.0934 
     88 H88        28.6793    1.2330   -4.7991 H         1 UNK         0.0739 
     89 H89        26.3413   -0.3585   -4.5079 H         1 UNK         0.3093 
     90 H90        25.4222   -0.5265   -7.9280 H         1 UNK         0.0818 
     91 H91        25.9166   -2.9440   -7.9195 H         1 UNK         0.0819 
     92 H92        27.4235   -2.0536   -8.0408 H         1 UNK         0.0819 
     93 H93        26.9551   -2.7720   -6.5053 H         1 UNK         0.0819 
     94 H94        24.6339   -2.2286   -5.8317 H         1 UNK         0.3041 
     95 H95        22.8937   -0.1129   -3.7105 H         1 UNK         0.0784 
     96 H96        21.1451   -0.1741   -5.5048 H         1 UNK         0.0793 
     97 H97        21.4710   -1.8804   -5.7759 H         1 UNK         0.0793 
     98 H98        20.8026   -1.3363   -4.2359 H         1 UNK         0.0793 
     99 H99        22.7023   -2.8918   -3.8175 H         1 UNK         0.3024 
    100 H100       24.3390   -3.8130   -1.6915 H         1 UNK         0.1171 
    101 H101       24.4965   -5.8473   -3.2219 H         1 UNK         0.0786 
    102 H102       23.1949   -4.7970   -3.7048 H         1 UNK         0.0786 
    103 H103       24.7118   -4.7797   -4.6012 H         1 UNK         0.0786 
    104 H104       26.8242   -3.1447   -2.8715 H         1 UNK         0.2977 
    105 H105       25.2637    2.0787   -5.2105 H         1 UNK         0.3127 
    106 H106       25.7756    4.9733   -5.1272 H         1 UNK         0.0770 
    107 H107       23.2871    3.4083   -5.9938 H         1 UNK         0.0814 
    108 H108       23.3902    5.1409   -5.7272 H         1 UNK         0.0814 
    109 H109       23.5804    4.0387   -4.3729 H         1 UNK         0.0814 
    110 H110       25.6255    2.3647   -7.5101 H         1 UNK         0.2983 
    111 H111       25.5191    4.1118   -9.8429 H         1 UNK         0.0947 
    112 H112       26.1423    1.1138   -9.6242 H         1 UNK         0.0806 
    113 H113       25.7791    1.9944  -11.0999 H         1 UNK         0.0806 
    114 H114       24.5391    1.8064   -9.8714 H         1 UNK         0.0806 
    115 H115       27.9949    2.3314   -8.0496 H         1 UNK         0.3000 
    116 H116       30.1574    2.4967   -7.7985 H         1 UNK         0.0850 
    117 H117       29.9792    4.9871   -7.9184 H         1 UNK         0.0810 
    118 H118       30.2575    4.9239   -9.6596 H         1 UNK         0.0810 
    119 H119       31.5094    4.3996   -8.5480 H         1 UNK         0.0810 
    120 H120       28.7518    1.6177  -10.6340 H         1 UNK         0.3040 
    121 H121       31.0659    0.8959  -12.2332 H         1 UNK         0.0766 
    122 H122       29.3837   -0.4670  -13.4862 H         1 UNK         0.0812 
    123 H123       28.8065    1.1762  -13.2564 H         1 UNK         0.0812 
    124 H124       28.1695   -0.1322  -12.2597 H         1 UNK         0.0812 
    125 H125       32.4031   -0.7797  -11.8361 H         1 UNK         0.3205 
    126 H126       33.4859   -2.4099  -10.7683 H         1 UNK         0.0754 
    127 H127       32.3385   -4.5760  -10.4252 H         1 UNK         0.0769 
    128 H128       31.8511   -3.8804  -11.9622 H         1 UNK         0.0769 
    129 H129       30.7638   -3.8110  -10.5763 H         1 UNK         0.0769 
    130 H130       33.0430   -0.2824   -9.2777 H         1 UNK         0.2981 
    131 H131       32.9617    0.7156   -7.4395 H         1 UNK         0.0541 
    132 H132       29.2578   -0.1675   -7.0964 H         1 UNK         0.3459 
    133 H133       30.2826   -0.8436   -8.3338 H         1 UNK         0.3459 
    134 H134       34.7259   -0.7768   -6.6380 H         1 UNK         0.0612 
    135 H135       33.7918   -0.0407   -5.3781 H         1 UNK         0.0612 
    136 H136       34.7820   -1.2860   -3.6963 H         1 UNK         0.0624 
    137 H137       34.8075   -3.0156   -3.5002 H         1 UNK         0.0624 
@<TRIPOS>BOND
     1    1    2 1    
     2    1   72 1    
     3    1   73 1    
     4    1   74 1    
     5    2    3 2    
     6    2    4 am   BACKBONE|DICT|INTERRES
     7    4    5 1    
     8    4   75 1    
     9    5    6 1    
    10    5   35 1    
    11    5   76 1    
    12    6    7 1    
    13    6   77 1    
    14    6   78 1    
    15    7    8 1    
    16    8    9 1    
    17    8   79 1    
    18    8   80 1    
    19    9   10 ar   
    20    9   14 ar   
    21   10   11 ar   
    22   10   81 1    
    23   11   12 ar   
    24   11   71 1    
    25   12   13 ar   
    26   12   82 1    
    27   13   14 ar   
    28   13   15 1    
    29   14   83 1    
    30   15   16 1    
    31   15   84 1    
    32   15   85 1    
    33   16   17 1    
    34   17   18 1    
    35   17   86 1    
    36   17   87 1    
    37   18   19 1    
    38   18   37 1    
    39   18   88 1    
    40   19   20 am   BACKBONE|DICT|INTERRES
    41   19   89 1    
    42   20   21 2    
    43   20   22 1    
    44   22   23 1    
    45   22   24 1    
    46   22   90 1    
    47   23   91 1    
    48   23   92 1    
    49   23   93 1    
    50   24   25 am   BACKBONE|DICT|INTERRES
    51   24   94 1    
    52   25   26 2    
    53   25   27 1    
    54   27   28 1    
    55   27   29 1    
    56   27   95 1    
    57   28   96 1    
    58   28   97 1    
    59   28   98 1    
    60   29   30 am   BACKBONE|DICT|INTERRES
    61   29   99 1    
    62   30   31 2    
    63   30   32 1    
    64   32   33 1    
    65   32   34 1    
    66   32  100 1    
    67   33  101 1    
    68   33  102 1    
    69   33  103 1    
    70   34   35 am   BACKBONE|DICT|INTERRES
    71   34  104 1    
    72   35   36 2    
    73   37   38 2    
    74   37   39 am   BACKBONE|DICT|INTERRES
    75   39   40 1    
    76   39  105 1    
    77   40   41 1    
    78   40   42 1    
    79   40  106 1    
    80   41  107 1    
    81   41  108 1    
    82   41  109 1    
    83   42   43 2    
    84   42   44 am   BACKBONE|DICT|INTERRES
    85   44   45 1    
    86   44  110 1    
    87   45   46 1    
    88   45   47 1    
    89   45  111 1    
    90   46  112 1    
    91   46  113 1    
    92   46  114 1    
    93   47   48 2    
    94   47   49 am   BACKBONE|DICT|INTERRES
    95   49   50 1    
    96   49  115 1    
    97   50   51 1    
    98   50   52 1    
    99   50  116 1    
   100   51  117 1    
   101   51  118 1    
   102   51  119 1    
   103   52   53 2    
   104   52   54 am   BACKBONE|DICT|INTERRES
   105   54   55 1    
   106   54  120 1    
   107   55   56 1    
   108   55   57 1    
   109   55  121 1    
   110   56  122 1    
   111   56  123 1    
   112   56  124 1    
   113   57   58 2    
   114   57   59 am   BACKBONE|DICT|INTERRES
   115   59   60 1    
   116   59  125 1    
   117   60   61 1    
   118   60   62 1    
   119   60  126 1    
   120   61  127 1    
   121   61  128 1    
   122   61  129 1    
   123   62   63 2    
   124   62   64 am   BACKBONE|DICT|INTERRES
   125   64   65 1    
   126   64  130 1    
   127   65   66 1    
   128   65   69 1    
   129   65  131 1    
   130   66   67 am   BACKBONE|DICT|INTERRES
   131   66   68 2    
   132   67  132 1    
   133   67  133 1    
   134   69   70 1    
   135   69  134 1    
   136   69  135 1    
   137   70   71 1    
   138   71  136 1    
   139   71  137 1    
@<TRIPOS>SUBSTRUCTURE
     1 UNK         1 GROUP             0       ****    0 ROOT    
