@<TRIPOS>MOLECULE
3R137
137   139    1
SMALL
USER_CHARGES


@<TRIPOS>ATOM
      1 CA         23.4231   -3.7964   -0.5303 C.3       0 UNK        -0.2020 
      2 C          24.6215   -2.8682   -0.6538 C.2       0 UNK         0.4855 
      3 O          24.7269   -1.8987    0.0980 O.2       0 UNK        -0.5197 
      4 N          25.5228   -3.1478   -1.6037 N.am      1 UNK        -0.4892 
      5 CA         26.7384   -2.3749   -1.8853 C.3       1 UNK         0.0835 
      6 C6         27.7600   -3.1997   -2.7073 C.3       12 UNK        -0.0855 
      7 S7         28.3395   -4.6849   -1.8228 S.3       12 UNK        -0.2931 
      8 C8         29.9912   -4.1542   -1.2485 C.3       12 UNK         0.0378 
      9 C9         30.9540   -3.7697   -2.3717 C.ar      12 UNK        -0.0802 
     10 C10        31.8182   -2.6832   -2.1974 C.ar      12 UNK        -0.0944 
     11 C11        32.7266   -2.3232   -3.1984 C.ar      12 UNK        -0.0787 
     12 C12        32.7636   -3.0620   -4.3839 C.ar      12 UNK        -0.0862 
     13 C13        31.8672   -4.1103   -4.5981 C.ar      12 UNK        -0.0733 
     14 C14        30.9915   -4.4838   -3.5752 C.ar      12 UNK        -0.0832 
     15 C15        31.8233   -4.8140   -5.9476 C.3       12 UNK         0.0240 
     16 S16        31.0258   -3.7820   -7.2279 S.3       12 UNK        -0.2522 
     17 C17        29.3197   -3.6213   -6.5879 C.3       12 UNK        -0.0967 
     18 CA         28.5339   -2.3963   -7.1267 C.3       5 UNK         0.0660 
     19 N          27.1085   -2.5292   -6.7921 N.am      5 UNK        -0.4015 
     20 C          26.1268   -1.6199   -6.8782 C.2       4 UNK         0.4946 
     21 O          26.3018   -0.4307   -7.1450 O.2       4 UNK        -0.5353 
     22 CA         24.6948   -2.1184   -6.6331 C.3       4 UNK         0.0277 
     23 CB         24.5748   -3.6356   -6.3617 C.3       4 UNK        -0.1981 
     24 N          24.1089   -1.3742   -5.5226 N.am      4 UNK        -0.4209 
     25 C          22.8044   -1.0910   -5.3933 C.2       3 UNK         0.4942 
     26 O          21.9642   -1.3720   -6.2497 O.2       3 UNK        -0.5208 
     27 CA         22.3254   -0.4245   -4.0868 C.3       3 UNK         0.0250 
     28 CB         21.3872   -1.3696   -3.3153 C.3       3 UNK        -0.1990 
     29 N          23.4239   -0.0424   -3.2007 N.am      3 UNK        -0.4232 
     30 C          24.1367    1.0863   -3.2994 C.2       2 UNK         0.4993 
     31 O          23.8632    1.9996   -4.0759 O.2       2 UNK        -0.5286 
     32 CA         25.3762    1.2066   -2.3928 C.3       2 UNK         0.0209 
     33 CB         25.0991    2.1585   -1.2185 C.3       2 UNK        -0.1931 
     34 N          25.8468   -0.0826   -1.8672 N.am      2 UNK        -0.4546 
     35 C          26.3820   -1.0616   -2.6075 C.2       1 UNK         0.5154 
     36 O          26.5473   -0.9696   -3.8250 O.2       1 UNK        -0.5181 
     37 C          29.1996   -1.0645   -6.7127 C.2       5 UNK         0.5014 
     38 O          29.9141   -0.4757   -7.5274 O.2       5 UNK        -0.5248 
     39 N          28.9482   -0.5860   -5.4864 N.am      6 UNK        -0.4434 
     40 CA         29.5888    0.6228   -4.9587 C.3       6 UNK         0.0363 
     41 CB         29.4999    0.6438   -3.4251 C.3       6 UNK        -0.1936 
     42 C          29.0501    1.9303   -5.5658 C.2       6 UNK         0.5081 
     43 O          29.7167    2.9570   -5.4371 O.2       6 UNK        -0.5248 
     44 N          27.8812    1.8813   -6.2180 N.am      7 UNK        -0.4718 
     45 CA         27.2698    3.0165   -6.9093 C.3       7 UNK         0.0273 
     46 CB         25.8353    3.2123   -6.3964 C.3       7 UNK        -0.1935 
     47 C          27.2728    2.8113   -8.4293 C.2       7 UNK         0.5018 
     48 O          27.6522    3.7274   -9.1583 O.2       7 UNK        -0.5186 
     49 N          26.8475    1.6244   -8.8836 N.am      8 UNK        -0.4240 
     50 CA         26.6656    1.2887  -10.2972 C.3       8 UNK         0.0235 
     51 CB         25.7995    0.0238  -10.4188 C.3       8 UNK        -0.2000 
     52 C          27.9910    1.1085  -11.0491 C.2       8 UNK         0.4941 
     53 O          28.1153    1.5972  -12.1726 O.2       8 UNK        -0.5273 
     54 N          28.9500    0.4170  -10.4195 N.am      9 UNK        -0.4262 
     55 CA         30.2834    0.1646  -10.9727 C.3       9 UNK         0.0264 
     56 CB         30.6276   -1.3250  -10.7880 C.3       9 UNK        -0.1955 
     57 C          31.3592    1.0511  -10.3246 C.2       9 UNK         0.5031 
     58 O          32.5157    0.9727  -10.7404 O.2       9 UNK        -0.5390 
     59 N          30.9887    1.8364   -9.2996 N.am      10 UNK        -0.4204 
     60 CA         31.8663    2.6401   -8.4365 C.3       10 UNK         0.0237 
     61 CB         32.4275    3.8517   -9.2107 C.3       10 UNK        -0.1985 
     62 C          32.9647    1.7889   -7.7633 C.2       10 UNK         0.4970 
     63 O          34.1201    2.2119   -7.7005 O.2       10 UNK        -0.4914 
     64 N          32.5767    0.5843   -7.3236 N.am      11 UNK        -0.4285 
     65 CA         33.4344   -0.5049   -6.8330 C.3       11 UNK         0.1007 
     66 C          34.2861   -1.2170   -7.9288 C.2       11 UNK         0.5703 
     67 N          34.1678   -0.8910   -9.2104 N.am      11 UNK        -0.7361 
     68 O          35.0536   -2.1233   -7.6138 O.2       11 UNK        -0.4986 
     69 C69        34.2846   -0.1389   -5.5773 C.3       12 UNK        -0.0947 
     70 S70        33.2877    0.2574   -4.1006 S.3       12 UNK        -0.2240 
     71 C71        33.6680   -1.1427   -2.9916 C.3       12 UNK         0.0194 
     72 H72        23.4356   -4.2957    0.4382 H         1 UNK         0.0906 
     73 H73        23.4164   -4.5610   -1.3069 H         1 UNK         0.0906 
     74 H74        22.4971   -3.2272   -0.6071 H         1 UNK         0.0906 
     75 H75        25.3921   -3.9662   -2.1815 H         1 UNK         0.3140 
     76 H76        27.2106   -2.1067   -0.9373 H         1 UNK         0.1085 
     77 H77        27.3204   -3.5257   -3.6519 H         1 UNK         0.0836 
     78 H78        28.6182   -2.5822   -2.9776 H         1 UNK         0.0836 
     79 H79        29.8602   -3.3206   -0.5566 H         1 UNK         0.0731 
     80 H80        30.4376   -4.9657   -0.6726 H         1 UNK         0.0731 
     81 H81        31.7900   -2.1199   -1.2745 H         1 UNK         0.1312 
     82 H82        33.4720   -2.8079   -5.1572 H         1 UNK         0.1406 
     83 H83        30.3161   -5.3143   -3.7290 H         1 UNK         0.1631 
     84 H84        32.8396   -5.0497   -6.2667 H         1 UNK         0.0717 
     85 H85        31.2960   -5.7664   -5.8735 H         1 UNK         0.0717 
     86 H86        28.8004   -4.5440   -6.8522 H         1 UNK         0.0934 
     87 H87        29.3317   -3.5910   -5.4989 H         1 UNK         0.0934 
     88 H88        28.5768   -2.4317   -8.2170 H         1 UNK         0.0739 
     89 H89        26.8193   -3.4640   -6.5468 H         1 UNK         0.3093 
     90 H90        24.1441   -1.8896   -7.5481 H         1 UNK         0.0818 
     91 H91        23.5297   -3.9303   -6.2625 H         1 UNK         0.0819 
     92 H92        24.9854   -4.2245   -7.1831 H         1 UNK         0.0819 
     93 H93        25.0822   -3.9289   -5.4417 H         1 UNK         0.0819 
     94 H94        24.7706   -1.0522   -4.8236 H         1 UNK         0.3041 
     95 H95        21.7611    0.4687   -4.3632 H         1 UNK         0.0784 
     96 H96        20.5167   -1.6343   -3.9172 H         1 UNK         0.0793 
     97 H97        21.8868   -2.2994   -3.0405 H         1 UNK         0.0793 
     98 H98        21.0160   -0.9037   -2.4022 H         1 UNK         0.0793 
     99 H99        23.7119   -0.7224   -2.5129 H         1 UNK         0.3024 
    100 H100       26.1718    1.6362   -3.0058 H         1 UNK         0.1171 
    101 H101       25.9956    2.3209   -0.6198 H         1 UNK         0.0786 
    102 H102       24.7692    3.1351   -1.5761 H         1 UNK         0.0786 
    103 H103       24.3202    1.7712   -0.5605 H         1 UNK         0.0786 
    104 H104       25.6569   -0.2817   -0.8904 H         1 UNK         0.2977 
    105 H105       28.2340   -1.0201   -4.9107 H         1 UNK         0.3127 
    106 H106       30.6462    0.5715   -5.2194 H         1 UNK         0.0770 
    107 H107       30.1246    1.4396   -3.0175 H         1 UNK         0.0814 
    108 H108       28.4845    0.8279   -3.0804 H         1 UNK         0.0814 
    109 H109       29.8501   -0.2927   -2.9908 H         1 UNK         0.0814 
    110 H110       27.4067    0.9868   -6.3037 H         1 UNK         0.2983 
    111 H111       27.8231    3.9362   -6.7060 H         1 UNK         0.0947 
    112 H112       25.3372    4.0286   -6.9211 H         1 UNK         0.0806 
    113 H113       25.8300    3.4602   -5.3350 H         1 UNK         0.0806 
    114 H114       25.2283    2.3158   -6.5315 H         1 UNK         0.0806 
    115 H115       26.5704    0.9099   -8.2094 H         1 UNK         0.3000 
    116 H116       26.1265    2.1129  -10.7698 H         1 UNK         0.0850 
    117 H117       24.8338    0.1560   -9.9303 H         1 UNK         0.0810 
    118 H118       26.2839   -0.8448   -9.9713 H         1 UNK         0.0810 
    119 H119       25.6037   -0.2154  -11.4650 H         1 UNK         0.0810 
    120 H120       28.7720    0.0542   -9.4916 H         1 UNK         0.3040 
    121 H121       30.2985    0.3788  -12.0433 H         1 UNK         0.0766 
    122 H122       29.8742   -1.9664  -11.2452 H         1 UNK         0.0812 
    123 H123       30.7097   -1.6009   -9.7367 H         1 UNK         0.0812 
    124 H124       31.5825   -1.5655  -11.2572 H         1 UNK         0.0812 
    125 H125       30.0158    1.8115   -9.0318 H         1 UNK         0.3205 
    126 H126       31.2416    3.0260   -7.6309 H         1 UNK         0.0754 
    127 H127       33.1029    3.5444  -10.0099 H         1 UNK         0.0769 
    128 H128       32.9864    4.5140   -8.5484 H         1 UNK         0.0769 
    129 H129       31.6265    4.4414   -9.6565 H         1 UNK         0.0769 
    130 H130       31.6038    0.3167   -7.4553 H         1 UNK         0.2981 
    131 H131       32.7140   -1.2633   -6.5328 H         1 UNK         0.0541 
    132 H132       34.7263   -1.3857   -9.8866 H         1 UNK         0.3459 
    133 H133       33.5528   -0.1476   -9.5235 H         1 UNK         0.3459 
    134 H134       34.9365    0.7096   -5.7845 H         1 UNK         0.0612 
    135 H135       34.9618   -0.9536   -5.3194 H         1 UNK         0.0612 
    136 H136       33.5951   -0.7819   -1.9646 H         1 UNK         0.0624 
    137 H137       34.7021   -1.4646   -3.1192 H         1 UNK         0.0624 
@<TRIPOS>BOND
     1    1    2 1    
     2    1   72 1    
     3    1   73 1    
     4    1   74 1    
     5    2    3 2    
     6    2    4 am   BACKBONE|DICT|INTERRES
     7    4    5 1    
     8    4   75 1    
     9    5    6 1    
    10    5   35 1    
    11    5   76 1    
    12    6    7 1    
    13    6   77 1    
    14    6   78 1    
    15    7    8 1    
    16    8    9 1    
    17    8   79 1    
    18    8   80 1    
    19    9   10 ar   
    20    9   14 ar   
    21   10   11 ar   
    22   10   81 1    
    23   11   12 ar   
    24   11   71 1    
    25   12   13 ar   
    26   12   82 1    
    27   13   14 ar   
    28   13   15 1    
    29   14   83 1    
    30   15   16 1    
    31   15   84 1    
    32   15   85 1    
    33   16   17 1    
    34   17   18 1    
    35   17   86 1    
    36   17   87 1    
    37   18   19 1    
    38   18   37 1    
    39   18   88 1    
    40   19   20 am   BACKBONE|DICT|INTERRES
    41   19   89 1    
    42   20   21 2    
    43   20   22 1    
    44   22   23 1    
    45   22   24 1    
    46   22   90 1    
    47   23   91 1    
    48   23   92 1    
    49   23   93 1    
    50   24   25 am   BACKBONE|DICT|INTERRES
    51   24   94 1    
    52   25   26 2    
    53   25   27 1    
    54   27   28 1    
    55   27   29 1    
    56   27   95 1    
    57   28   96 1    
    58   28   97 1    
    59   28   98 1    
    60   29   30 am   BACKBONE|DICT|INTERRES
    61   29   99 1    
    62   30   31 2    
    63   30   32 1    
    64   32   33 1    
    65   32   34 1    
    66   32  100 1    
    67   33  101 1    
    68   33  102 1    
    69   33  103 1    
    70   34   35 am   BACKBONE|DICT|INTERRES
    71   34  104 1    
    72   35   36 2    
    73   37   38 2    
    74   37   39 am   BACKBONE|DICT|INTERRES
    75   39   40 1    
    76   39  105 1    
    77   40   41 1    
    78   40   42 1    
    79   40  106 1    
    80   41  107 1    
    81   41  108 1    
    82   41  109 1    
    83   42   43 2    
    84   42   44 am   BACKBONE|DICT|INTERRES
    85   44   45 1    
    86   44  110 1    
    87   45   46 1    
    88   45   47 1    
    89   45  111 1    
    90   46  112 1    
    91   46  113 1    
    92   46  114 1    
    93   47   48 2    
    94   47   49 am   BACKBONE|DICT|INTERRES
    95   49   50 1    
    96   49  115 1    
    97   50   51 1    
    98   50   52 1    
    99   50  116 1    
   100   51  117 1    
   101   51  118 1    
   102   51  119 1    
   103   52   53 2    
   104   52   54 am   BACKBONE|DICT|INTERRES
   105   54   55 1    
   106   54  120 1    
   107   55   56 1    
   108   55   57 1    
   109   55  121 1    
   110   56  122 1    
   111   56  123 1    
   112   56  124 1    
   113   57   58 2    
   114   57   59 am   BACKBONE|DICT|INTERRES
   115   59   60 1    
   116   59  125 1    
   117   60   61 1    
   118   60   62 1    
   119   60  126 1    
   120   61  127 1    
   121   61  128 1    
   122   61  129 1    
   123   62   63 2    
   124   62   64 am   BACKBONE|DICT|INTERRES
   125   64   65 1    
   126   64  130 1    
   127   65   66 1    
   128   65   69 1    
   129   65  131 1    
   130   66   67 am   BACKBONE|DICT|INTERRES
   131   66   68 2    
   132   67  132 1    
   133   67  133 1    
   134   69   70 1    
   135   69  134 1    
   136   69  135 1    
   137   70   71 1    
   138   71  136 1    
   139   71  137 1    
@<TRIPOS>SUBSTRUCTURE
     1 UNK         1 GROUP             0       ****    0 ROOT    
