@<TRIPOS>MOLECULE
3R137
137   139    1
SMALL
USER_CHARGES


@<TRIPOS>ATOM
      1 CA         31.6024    0.5654   -1.3389 C.3       0 UNK        -0.2020 
      2 C          30.6307   -0.4971   -0.8492 C.2       0 UNK         0.4855 
      3 O          30.4337   -0.6360    0.3585 O.2       0 UNK        -0.5197 
      4 N          30.0376   -1.2439   -1.7897 N.am      1 UNK        -0.4892 
      5 CA         29.0056   -2.2725   -1.5966 C.3       1 UNK         0.0835 
      6 C6         29.4084   -3.3711   -0.5719 C.3       12 UNK        -0.0855 
      7 S7         28.7455   -5.0157   -1.0065 S.3       12 UNK        -0.2931 
      8 C8         30.1458   -5.7431   -1.9186 C.3       12 UNK         0.0378 
      9 C9         30.3582   -5.0476   -3.2550 C.ar      12 UNK        -0.0802 
     10 C10        31.3479   -4.0683   -3.3957 C.ar      12 UNK        -0.0944 
     11 C11        31.5221   -3.4090   -4.6157 C.ar      12 UNK        -0.0787 
     12 C12        30.6980   -3.7376   -5.6938 C.ar      12 UNK        -0.0862 
     13 C13        29.7115   -4.7190   -5.5737 C.ar      12 UNK        -0.0733 
     14 C14        29.5536   -5.3787   -4.3500 C.ar      12 UNK        -0.0832 
     15 C15        28.8551   -5.0686   -6.7879 C.3       12 UNK         0.0240 
     16 S16        27.0822   -5.2926   -6.4221 S.3       12 UNK        -0.2522 
     17 C17        26.6268   -3.6852   -5.6974 C.3       12 UNK        -0.0967 
     18 CA         26.3320   -2.5968   -6.7689 C.3       5 UNK         0.0660 
     19 N          25.0454   -1.9398   -6.5306 N.am      5 UNK        -0.4015 
     20 C          24.3896   -1.1729   -7.4105 C.2       4 UNK         0.4946 
     21 O          24.7781   -0.9576   -8.5586 O.2       4 UNK        -0.5353 
     22 CA         23.0856   -0.5202   -6.9168 C.3       4 UNK         0.0277 
     23 CB         21.8912   -1.4578   -7.1550 C.3       4 UNK        -0.1981 
     24 N          23.1293   -0.1315   -5.5021 N.am      4 UNK        -0.4209 
     25 C          23.8966    0.8580   -5.0245 C.2       3 UNK         0.4942 
     26 O          24.6436    1.5406   -5.7238 O.2       3 UNK        -0.5208 
     27 CA         23.8613    1.1056   -3.5060 C.3       3 UNK         0.0250 
     28 CB         22.5683    1.8361   -3.1073 C.3       3 UNK        -0.1990 
     29 N          24.0428   -0.0788   -2.6526 N.am      3 UNK        -0.4232 
     30 C          24.9813   -1.0245   -2.8013 C.2       2 UNK         0.4993 
     31 O          25.6853   -1.1490   -3.8045 O.2       2 UNK        -0.5286 
     32 CA         25.1720   -2.0159   -1.6408 C.3       2 UNK         0.0209 
     33 CB         24.2585   -3.2380   -1.8248 C.3       2 UNK        -0.1931 
     34 N          26.5665   -2.4672   -1.5724 N.am      2 UNK        -0.4546 
     35 C          27.6121   -1.6676   -1.3171 C.2       1 UNK         0.5154 
     36 O          27.4909   -0.5053   -0.9196 O.2       1 UNK        -0.5181 
     37 C          27.4599   -1.5508   -6.8345 C.2       5 UNK         0.5014 
     38 O          28.2616   -1.5632   -7.7700 O.2       5 UNK        -0.5248 
     39 N          27.4653   -0.6403   -5.8510 N.am      6 UNK        -0.4434 
     40 CA         28.3850    0.4879   -5.7467 C.3       6 UNK         0.0363 
     41 CB         28.1762    1.2110   -4.4078 C.3       6 UNK        -0.1936 
     42 C          28.2645    1.4583   -6.9280 C.2       6 UNK         0.5081 
     43 O          29.2906    1.8648   -7.4666 O.2       6 UNK        -0.5248 
     44 N          27.0307    1.7722   -7.3489 N.am      7 UNK        -0.4718 
     45 CA         26.7480    2.5950   -8.5287 C.3       7 UNK         0.0273 
     46 CB         25.2423    2.8924   -8.6071 C.3       7 UNK        -0.1935 
     47 C          27.2407    1.9662   -9.8435 C.2       7 UNK         0.5018 
     48 O          27.7259    2.6948  -10.7095 O.2       7 UNK        -0.5186 
     49 N          27.1198    0.6365   -9.9670 N.am      8 UNK        -0.4240 
     50 CA         27.6008   -0.1278  -11.1186 C.3       8 UNK         0.0235 
     51 CB         26.9678   -1.5292  -11.1157 C.3       8 UNK        -0.2000 
     52 C          29.1350   -0.2174  -11.1667 C.2       8 UNK         0.4941 
     53 O          29.7198    0.0220  -12.2240 O.2       8 UNK        -0.5273 
     54 N          29.7573   -0.5689  -10.0331 N.am      9 UNK        -0.4262 
     55 CA         31.2063   -0.7625   -9.9195 C.3       9 UNK         0.0264 
     56 CB         31.4910   -1.6696   -8.7162 C.3       9 UNK        -0.1955 
     57 C          32.0105    0.5422   -9.7938 C.2       9 UNK         0.5031 
     58 O          33.2034    0.5331  -10.1005 O.2       9 UNK        -0.5390 
     59 N          31.3654    1.6153   -9.3155 N.am      10 UNK        -0.4204 
     60 CA         31.9330    2.9202   -8.9547 C.3       10 UNK         0.0237 
     61 CB         32.5855    3.6164  -10.1691 C.3       10 UNK        -0.1985 
     62 C          32.8531    2.8639   -7.7162 C.2       10 UNK         0.4970 
     63 O          33.7130    3.7342   -7.5647 O.2       10 UNK        -0.4914 
     64 N          32.6585    1.8604   -6.8480 N.am      11 UNK        -0.4285 
     65 CA         33.3600    1.7229   -5.5640 C.3       11 UNK         0.1007 
     66 C          32.7506    2.6153   -4.4470 C.2       11 UNK         0.5703 
     67 N          33.4949    2.8560   -3.3757 N.am      11 UNK        -0.7361 
     68 O          31.6131    3.0758   -4.5269 O.2       11 UNK        -0.4986 
     69 C69        33.5187    0.2375   -5.1376 C.3       12 UNK        -0.0947 
     70 S70        31.9635   -0.6779   -4.8664 S.3       12 UNK        -0.2240 
     71 C71        32.6219   -2.3718   -4.7899 C.3       12 UNK         0.0194 
     72 H72        32.6003    0.1436   -1.4552 H         1 UNK         0.0906 
     73 H73        31.2863    0.9750   -2.2979 H         1 UNK         0.0906 
     74 H74        31.6595    1.3899   -0.6287 H         1 UNK         0.0906 
     75 H75        30.2697   -1.0630   -2.7572 H         1 UNK         0.3140 
     76 H76        28.9250   -2.7345   -2.5817 H         1 UNK         0.1085 
     77 H77        30.4943   -3.4529   -0.5076 H         1 UNK         0.0836 
     78 H78        29.0821   -3.1090    0.4365 H         1 UNK         0.0836 
     79 H79        31.0490   -5.6979   -1.3079 H         1 UNK         0.0731 
     80 H80        29.9462   -6.8025   -2.0862 H         1 UNK         0.0731 
     81 H81        31.9783   -3.8155   -2.5542 H         1 UNK         0.1312 
     82 H82        30.8337   -3.2314   -6.6354 H         1 UNK         0.1406 
     83 H83        28.7945   -6.1419   -4.2437 H         1 UNK         0.1631 
     84 H84        28.9494   -4.3016   -7.5584 H         1 UNK         0.0717 
     85 H85        29.2379   -5.9908   -7.2265 H         1 UNK         0.0717 
     86 H86        25.7387   -3.8754   -5.0926 H         1 UNK         0.0934 
     87 H87        27.3828   -3.3755   -4.9726 H         1 UNK         0.0934 
     88 H88        26.2687   -3.0638   -7.7544 H         1 UNK         0.0739 
     89 H89        24.7099   -1.9620   -5.5771 H         1 UNK         0.3093 
     90 H90        22.9296    0.3843   -7.5090 H         1 UNK         0.0818 
     91 H91        20.9493   -0.9752   -6.8935 H         1 UNK         0.0819 
     92 H92        21.8251   -1.7441   -8.2057 H         1 UNK         0.0819 
     93 H93        21.9727   -2.3760   -6.5719 H         1 UNK         0.0819 
     94 H94        22.5486   -0.6490   -4.8581 H         1 UNK         0.3041 
     95 H95        24.6978    1.7709   -3.2825 H         1 UNK         0.0784 
     96 H96        22.4146    2.7244   -3.7222 H         1 UNK         0.0793 
     97 H97        21.6899    1.2008   -3.2268 H         1 UNK         0.0793 
     98 H98        22.6032    2.1682   -2.0695 H         1 UNK         0.0793 
     99 H99        23.4923   -0.0915   -1.8058 H         1 UNK         0.3024 
    100 H100       24.9267   -1.5159   -0.7012 H         1 UNK         0.1171 
    101 H101       24.3715   -3.9446   -1.0022 H         1 UNK         0.0786 
    102 H102       23.2087   -2.9429   -1.8537 H         1 UNK         0.0786 
    103 H103       24.4740   -3.7680   -2.7536 H         1 UNK         0.0786 
    104 H104       26.7506   -3.4129   -1.8763 H         1 UNK         0.2977 
    105 H105       26.7679   -0.7316   -5.1106 H         1 UNK         0.3127 
    106 H106       29.3952    0.0811   -5.7640 H         1 UNK         0.0770 
    107 H107       27.1709    1.6258   -4.3260 H         1 UNK         0.0814 
    108 H108       28.8832    2.0345   -4.2971 H         1 UNK         0.0814 
    109 H109       28.3277    0.5378   -3.5644 H         1 UNK         0.0814 
    110 H110       26.2282    1.4523   -6.8116 H         1 UNK         0.2983 
    111 H111       27.2765    3.5425   -8.4031 H         1 UNK         0.0947 
    112 H112       25.0086    3.5068   -9.4776 H         1 UNK         0.0806 
    113 H113       24.8999    3.4361   -7.7265 H         1 UNK         0.0806 
    114 H114       24.6549    1.9767   -8.6845 H         1 UNK         0.0806 
    115 H115       26.6752    0.1143   -9.2212 H         1 UNK         0.3000 
    116 H116       27.2713    0.3852  -12.0249 H         1 UNK         0.0850 
    117 H117       27.3039   -2.1115  -11.9746 H         1 UNK         0.0810 
    118 H118       25.8804   -1.4711  -11.1686 H         1 UNK         0.0810 
    119 H119       27.2261   -2.0919  -10.2181 H         1 UNK         0.0810 
    120 H120       29.1958   -0.7952   -9.2132 H         1 UNK         0.3040 
    121 H121       31.5589   -1.2752  -10.8171 H         1 UNK         0.0766 
    122 H122       31.0192   -2.6435   -8.8463 H         1 UNK         0.0812 
    123 H123       31.1168   -1.2294   -7.7912 H         1 UNK         0.0812 
    124 H124       32.5613   -1.8399   -8.5903 H         1 UNK         0.0812 
    125 H125       30.4028    1.4931   -9.0108 H         1 UNK         0.3205 
    126 H126       31.0823    3.5340   -8.6554 H         1 UNK         0.0754 
    127 H127       32.8350    4.6525   -9.9372 H         1 UNK         0.0769 
    128 H128       31.9121    3.6310  -11.0261 H         1 UNK         0.0769 
    129 H129       33.5088    3.1235  -10.4744 H         1 UNK         0.0769 
    130 H130       31.8833    1.2325   -6.9986 H         1 UNK         0.2981 
    131 H131       34.3740    2.0980   -5.7165 H         1 UNK         0.0541 
    132 H132       34.4293    2.4873   -3.2939 H         1 UNK         0.3459 
    133 H133       33.1182    3.4323   -2.6402 H         1 UNK         0.3459 
    134 H134       34.1171    0.1660   -4.2277 H         1 UNK         0.0612 
    135 H135       34.0900   -0.2873   -5.9049 H         1 UNK         0.0612 
    136 H136       33.3427   -2.4366   -3.9733 H         1 UNK         0.0624 
    137 H137       33.1727   -2.5853   -5.7072 H         1 UNK         0.0624 
@<TRIPOS>BOND
     1    1    2 1    
     2    1   72 1    
     3    1   73 1    
     4    1   74 1    
     5    2    3 2    
     6    2    4 am   BACKBONE|DICT|INTERRES
     7    4    5 1    
     8    4   75 1    
     9    5    6 1    
    10    5   35 1    
    11    5   76 1    
    12    6    7 1    
    13    6   77 1    
    14    6   78 1    
    15    7    8 1    
    16    8    9 1    
    17    8   79 1    
    18    8   80 1    
    19    9   10 ar   
    20    9   14 ar   
    21   10   11 ar   
    22   10   81 1    
    23   11   12 ar   
    24   11   71 1    
    25   12   13 ar   
    26   12   82 1    
    27   13   14 ar   
    28   13   15 1    
    29   14   83 1    
    30   15   16 1    
    31   15   84 1    
    32   15   85 1    
    33   16   17 1    
    34   17   18 1    
    35   17   86 1    
    36   17   87 1    
    37   18   19 1    
    38   18   37 1    
    39   18   88 1    
    40   19   20 am   BACKBONE|DICT|INTERRES
    41   19   89 1    
    42   20   21 2    
    43   20   22 1    
    44   22   23 1    
    45   22   24 1    
    46   22   90 1    
    47   23   91 1    
    48   23   92 1    
    49   23   93 1    
    50   24   25 am   BACKBONE|DICT|INTERRES
    51   24   94 1    
    52   25   26 2    
    53   25   27 1    
    54   27   28 1    
    55   27   29 1    
    56   27   95 1    
    57   28   96 1    
    58   28   97 1    
    59   28   98 1    
    60   29   30 am   BACKBONE|DICT|INTERRES
    61   29   99 1    
    62   30   31 2    
    63   30   32 1    
    64   32   33 1    
    65   32   34 1    
    66   32  100 1    
    67   33  101 1    
    68   33  102 1    
    69   33  103 1    
    70   34   35 am   BACKBONE|DICT|INTERRES
    71   34  104 1    
    72   35   36 2    
    73   37   38 2    
    74   37   39 am   BACKBONE|DICT|INTERRES
    75   39   40 1    
    76   39  105 1    
    77   40   41 1    
    78   40   42 1    
    79   40  106 1    
    80   41  107 1    
    81   41  108 1    
    82   41  109 1    
    83   42   43 2    
    84   42   44 am   BACKBONE|DICT|INTERRES
    85   44   45 1    
    86   44  110 1    
    87   45   46 1    
    88   45   47 1    
    89   45  111 1    
    90   46  112 1    
    91   46  113 1    
    92   46  114 1    
    93   47   48 2    
    94   47   49 am   BACKBONE|DICT|INTERRES
    95   49   50 1    
    96   49  115 1    
    97   50   51 1    
    98   50   52 1    
    99   50  116 1    
   100   51  117 1    
   101   51  118 1    
   102   51  119 1    
   103   52   53 2    
   104   52   54 am   BACKBONE|DICT|INTERRES
   105   54   55 1    
   106   54  120 1    
   107   55   56 1    
   108   55   57 1    
   109   55  121 1    
   110   56  122 1    
   111   56  123 1    
   112   56  124 1    
   113   57   58 2    
   114   57   59 am   BACKBONE|DICT|INTERRES
   115   59   60 1    
   116   59  125 1    
   117   60   61 1    
   118   60   62 1    
   119   60  126 1    
   120   61  127 1    
   121   61  128 1    
   122   61  129 1    
   123   62   63 2    
   124   62   64 am   BACKBONE|DICT|INTERRES
   125   64   65 1    
   126   64  130 1    
   127   65   66 1    
   128   65   69 1    
   129   65  131 1    
   130   66   67 am   BACKBONE|DICT|INTERRES
   131   66   68 2    
   132   67  132 1    
   133   67  133 1    
   134   69   70 1    
   135   69  134 1    
   136   69  135 1    
   137   70   71 1    
   138   71  136 1    
   139   71  137 1    
@<TRIPOS>SUBSTRUCTURE
     1 UNK         1 GROUP             0       ****    0 ROOT    
