@<TRIPOS>MOLECULE
3R137
137   139    1
SMALL
USER_CHARGES


@<TRIPOS>ATOM
      1 CA         29.0953   -0.2104    1.3063 C.3       0 UNK        -0.2020 
      2 C          29.2426   -0.7268   -0.1165 C.2       0 UNK         0.4855 
      3 O          30.0134   -0.1667   -0.8956 O.2       0 UNK        -0.5197 
      4 N          28.4978   -1.7819   -0.4702 N.am      1 UNK        -0.4892 
      5 CA         28.5111   -2.4517   -1.7789 C.3       1 UNK         0.0835 
      6 C6         28.0273   -3.9217   -1.6543 C.3       12 UNK        -0.0855 
      7 S7         29.2582   -4.9355   -0.7595 S.3       12 UNK        -0.2931 
      8 C8         29.9704   -5.9877   -2.0749 C.3       12 UNK         0.0378 
      9 C9         30.2592   -5.2230   -3.3613 C.ar      12 UNK        -0.0802 
     10 C10        31.1992   -4.1881   -3.3793 C.ar      12 UNK        -0.0944 
     11 C11        31.3987   -3.4360   -4.5404 C.ar      12 UNK        -0.0787 
     12 C12        30.6792   -3.7461   -5.6983 C.ar      12 UNK        -0.0862 
     13 C13        29.7549   -4.7929   -5.6983 C.ar      12 UNK        -0.0733 
     14 C14        29.5529   -5.5304   -4.5286 C.ar      12 UNK        -0.0832 
     15 C15        28.9722   -5.1326   -6.9574 C.3       12 UNK         0.0240 
     16 S16        27.2051   -4.7383   -6.7801 S.3       12 UNK        -0.2522 
     17 C17        27.2087   -2.9237   -6.9596 C.3       12 UNK        -0.0967 
     18 CA         25.7597   -2.3747   -6.9619 C.3       5 UNK         0.0660 
     19 N          25.1198   -2.5370   -5.6558 N.am      5 UNK        -0.4015 
     20 C          23.8035   -2.6617   -5.4435 C.2       4 UNK         0.4946 
     21 O          22.9649   -2.6810   -6.3465 O.2       4 UNK        -0.5353 
     22 CA         23.3479   -2.7363   -3.9807 C.3       4 UNK         0.0277 
     23 CB         23.7700   -4.0700   -3.3397 C.3       4 UNK        -0.1981 
     24 N          23.9177   -1.6236   -3.2211 N.am      4 UNK        -0.4209 
     25 C          23.2799   -0.4782   -2.9396 C.2       3 UNK         0.4942 
     26 O          22.0998   -0.2626   -3.2184 O.2       3 UNK        -0.5208 
     27 CA         24.0904    0.6204   -2.2231 C.3       3 UNK         0.0250 
     28 CB         23.9191    0.5077   -0.6995 C.3       3 UNK        -0.1990 
     29 N          25.5175    0.5844   -2.5502 N.am      3 UNK        -0.4232 
     30 C          26.0321    0.8831   -3.7516 C.2       2 UNK         0.4993 
     31 O          25.3703    1.3638   -4.6699 O.2       2 UNK        -0.5286 
     32 CA         27.5260    0.5785   -3.9783 C.3       2 UNK         0.0209 
     33 CB         28.3516    1.8748   -3.9453 C.3       2 UNK        -0.1931 
     34 N          28.1120   -0.3821   -3.0352 N.am      2 UNK        -0.4546 
     35 C          27.7237   -1.6489   -2.8362 C.2       1 UNK         0.5154 
     36 O          26.7584   -2.1552   -3.4118 O.2       1 UNK        -0.5181 
     37 C          25.6736   -0.8947   -7.3764 C.2       5 UNK         0.5014 
     38 O          26.6831   -0.1881   -7.3626 O.2       5 UNK        -0.5248 
     39 N          24.4502   -0.4638   -7.7193 N.am      6 UNK        -0.4434 
     40 CA         24.0150    0.9172   -7.9709 C.3       6 UNK         0.0363 
     41 CB         22.5203    0.9016   -8.3316 C.3       6 UNK        -0.1936 
     42 C          24.8107    1.7179   -9.0198 C.2       6 UNK         0.5081 
     43 O          24.6967    2.9439   -9.0435 O.2       6 UNK        -0.5248 
     44 N          25.6096    1.0371   -9.8531 N.am      7 UNK        -0.4718 
     45 CA         26.5943    1.6491  -10.7494 C.3       7 UNK         0.0273 
     46 CB         27.1829    0.5676  -11.6695 C.3       7 UNK        -0.1935 
     47 C          27.7227    2.3847   -9.9998 C.2       7 UNK         0.5018 
     48 O          28.2887    3.3256  -10.5572 O.2       7 UNK        -0.5186 
     49 N          28.0297    1.9446   -8.7673 N.am      8 UNK        -0.4240 
     50 CA         28.9715    2.4943   -7.7789 C.3       8 UNK         0.0235 
     51 CB         28.5314    3.8978   -7.3231 C.3       8 UNK        -0.2000 
     52 C          30.4585    2.4925   -8.1793 C.2       8 UNK         0.4941 
     53 O          31.3035    2.2323   -7.3227 O.2       8 UNK        -0.5273 
     54 N          30.7621    2.7531   -9.4579 N.am      9 UNK        -0.4262 
     55 CA         32.1054    2.8394  -10.0446 C.3       9 UNK         0.0264 
     56 CB         31.9810    3.1840  -11.5371 C.3       9 UNK        -0.1955 
     57 C          32.9699    1.5806   -9.8548 C.2       9 UNK         0.5031 
     58 O          34.1949    1.6952   -9.7933 O.2       9 UNK        -0.5390 
     59 N          32.3215    0.4160   -9.7092 N.am      10 UNK        -0.4204 
     60 CA         32.9352   -0.8654   -9.3505 C.3       10 UNK         0.0237 
     61 CB         31.8491   -1.9547   -9.3439 C.3       10 UNK        -0.1985 
     62 C          33.6796   -0.8474   -8.0006 C.2       10 UNK         0.4970 
     63 O          34.6156   -1.6289   -7.8288 O.2       10 UNK        -0.4914 
     64 N          33.2650    0.0353   -7.0820 N.am      11 UNK        -0.4285 
     65 CA         33.9107    0.2636   -5.7821 C.3       11 UNK         0.1007 
     66 C          35.0085    1.3671   -5.8210 C.2       11 UNK         0.5703 
     67 N          35.3162    1.9760   -6.9617 N.am      11 UNK        -0.7361 
     68 O          35.6130    1.6664   -4.7938 O.2       11 UNK        -0.4986 
     69 C69        32.8666    0.5272   -4.6599 C.3       12 UNK        -0.0947 
     70 S70        31.5010   -0.6847   -4.5614 S.3       12 UNK        -0.2240 
     71 C71        32.3807   -2.2785   -4.5514 C.3       12 UNK         0.0194 
     72 H72        28.7576    0.8257    1.2962 H         1 UNK         0.0906 
     73 H73        28.3784   -0.7958    1.8817 H         1 UNK         0.0906 
     74 H74        30.0555   -0.2506    1.8198 H         1 UNK         0.0906 
     75 H75        27.8824   -2.1968    0.2153 H         1 UNK         0.3140 
     76 H76        29.5404   -2.4640   -2.1407 H         1 UNK         0.1085 
     77 H77        27.0751   -3.9697   -1.1231 H         1 UNK         0.0836 
     78 H78        27.8344   -4.3668   -2.6313 H         1 UNK         0.0836 
     79 H79        29.2843   -6.8145   -2.2648 H         1 UNK         0.0731 
     80 H80        30.8945   -6.4369   -1.7084 H         1 UNK         0.0731 
     81 H81        31.7441   -3.9453   -2.4770 H         1 UNK         0.1312 
     82 H82        30.8343   -3.1619   -6.5946 H         1 UNK         0.1406 
     83 H83        28.8232   -6.3292   -4.5256 H         1 UNK         0.1631 
     84 H84        29.0745   -6.1994   -7.1613 H         1 UNK         0.0717 
     85 H85        29.3782   -4.6150   -7.8280 H         1 UNK         0.0717 
     86 H86        27.7980   -2.4782   -6.1552 H         1 UNK         0.0934 
     87 H87        27.7174   -2.6754   -7.8933 H         1 UNK         0.0934 
     88 H88        25.1959   -2.9429   -7.7057 H         1 UNK         0.0739 
     89 H89        25.7436   -2.4950   -4.8519 H         1 UNK         0.3093 
     90 H90        22.2570   -2.6850   -3.9636 H         1 UNK         0.0818 
     91 H91        24.8540   -4.1896   -3.3124 H         1 UNK         0.0819 
     92 H92        23.4014   -4.1488   -2.3169 H         1 UNK         0.0819 
     93 H93        23.3630   -4.9152   -3.8964 H         1 UNK         0.0819 
     94 H94        24.9067   -1.6946   -3.0053 H         1 UNK         0.3041 
     95 H95        23.6931    1.5860   -2.5435 H         1 UNK         0.0784 
     96 H96        22.8652    0.5581   -0.4217 H         1 UNK         0.0793 
     97 H97        24.3121   -0.4348   -0.3158 H         1 UNK         0.0793 
     98 H98        24.4278    1.3208   -0.1813 H         1 UNK         0.0793 
     99 H99        26.1417    0.2220   -1.8449 H         1 UNK         0.3024 
    100 H100       27.6123    0.1433   -4.9750 H         1 UNK         0.1171 
    101 H101       29.3840    1.6952   -4.2471 H         1 UNK         0.0786 
    102 H102       27.9408    2.6187   -4.6290 H         1 UNK         0.0786 
    103 H103       28.3644    2.3188   -2.9492 H         1 UNK         0.0786 
    104 H104       28.9024   -0.0584   -2.4826 H         1 UNK         0.2977 
    105 H105       23.7040   -1.1468   -7.6439 H         1 UNK         0.3127 
    106 H106       24.1274    1.4552   -7.0281 H         1 UNK         0.0770 
    107 H107       22.3340    0.3404   -9.2481 H         1 UNK         0.0814 
    108 H108       22.1422    1.9134   -8.4861 H         1 UNK         0.0814 
    109 H109       21.9238    0.4554   -7.5354 H         1 UNK         0.0814 
    110 H110       25.6348    0.0320   -9.7630 H         1 UNK         0.2983 
    111 H111       26.0768    2.3867  -11.3667 H         1 UNK         0.0947 
    112 H112       27.9041    0.9984  -12.3658 H         1 UNK         0.0806 
    113 H113       26.4066    0.0885  -12.2665 H         1 UNK         0.0806 
    114 H114       27.6999   -0.2085  -11.1035 H         1 UNK         0.0806 
    115 H115       27.4988    1.1470   -8.4205 H         1 UNK         0.3000 
    116 H116       28.8918    1.8308   -6.9163 H         1 UNK         0.0850 
    117 H117       29.1713    4.2651   -6.5196 H         1 UNK         0.0810 
    118 H118       27.5090    3.8867   -6.9448 H         1 UNK         0.0810 
    119 H119       28.5802    4.6234   -8.1356 H         1 UNK         0.0810 
    120 H120       29.9786    2.9900  -10.0650 H         1 UNK         0.3040 
    121 H121       32.6216    3.6608   -9.5438 H         1 UNK         0.0766 
    122 H122       31.4600    4.1304  -11.6837 H         1 UNK         0.0812 
    123 H123       31.4367    2.4136  -12.0848 H         1 UNK         0.0812 
    124 H124       32.9642    3.2820  -11.9999 H         1 UNK         0.0812 
    125 H125       31.3147    0.4331   -9.7766 H         1 UNK         0.3205 
    126 H126       33.6673   -1.1087  -10.1232 H         1 UNK         0.0754 
    127 H127       32.2702   -2.9266   -9.0823 H         1 UNK         0.0769 
    128 H128       31.3851   -2.0591  -10.3250 H         1 UNK         0.0769 
    129 H129       31.0620   -1.7345   -8.6214 H         1 UNK         0.0769 
    130 H130       32.5046    0.6728   -7.2988 H         1 UNK         0.2981 
    131 H131       34.4574   -0.6374   -5.5028 H         1 UNK         0.0541 
    132 H132       34.8505    1.7377   -7.8292 H         1 UNK         0.3459 
    133 H133       36.0359    2.6808   -6.9598 H         1 UNK         0.3459 
    134 H134       32.4141    1.5113   -4.7952 H         1 UNK         0.0612 
    135 H135       33.3567    0.5509   -3.6851 H         1 UNK         0.0612 
    136 H136       33.0066   -2.3726   -5.4381 H         1 UNK         0.0624 
    137 H137       33.0458   -2.3194   -3.6876 H         1 UNK         0.0624 
@<TRIPOS>BOND
     1    1    2 1    
     2    1   72 1    
     3    1   73 1    
     4    1   74 1    
     5    2    3 2    
     6    2    4 am   BACKBONE|DICT|INTERRES
     7    4    5 1    
     8    4   75 1    
     9    5    6 1    
    10    5   35 1    
    11    5   76 1    
    12    6    7 1    
    13    6   77 1    
    14    6   78 1    
    15    7    8 1    
    16    8    9 1    
    17    8   79 1    
    18    8   80 1    
    19    9   10 ar   
    20    9   14 ar   
    21   10   11 ar   
    22   10   81 1    
    23   11   12 ar   
    24   11   71 1    
    25   12   13 ar   
    26   12   82 1    
    27   13   14 ar   
    28   13   15 1    
    29   14   83 1    
    30   15   16 1    
    31   15   84 1    
    32   15   85 1    
    33   16   17 1    
    34   17   18 1    
    35   17   86 1    
    36   17   87 1    
    37   18   19 1    
    38   18   37 1    
    39   18   88 1    
    40   19   20 am   BACKBONE|DICT|INTERRES
    41   19   89 1    
    42   20   21 2    
    43   20   22 1    
    44   22   23 1    
    45   22   24 1    
    46   22   90 1    
    47   23   91 1    
    48   23   92 1    
    49   23   93 1    
    50   24   25 am   BACKBONE|DICT|INTERRES
    51   24   94 1    
    52   25   26 2    
    53   25   27 1    
    54   27   28 1    
    55   27   29 1    
    56   27   95 1    
    57   28   96 1    
    58   28   97 1    
    59   28   98 1    
    60   29   30 am   BACKBONE|DICT|INTERRES
    61   29   99 1    
    62   30   31 2    
    63   30   32 1    
    64   32   33 1    
    65   32   34 1    
    66   32  100 1    
    67   33  101 1    
    68   33  102 1    
    69   33  103 1    
    70   34   35 am   BACKBONE|DICT|INTERRES
    71   34  104 1    
    72   35   36 2    
    73   37   38 2    
    74   37   39 am   BACKBONE|DICT|INTERRES
    75   39   40 1    
    76   39  105 1    
    77   40   41 1    
    78   40   42 1    
    79   40  106 1    
    80   41  107 1    
    81   41  108 1    
    82   41  109 1    
    83   42   43 2    
    84   42   44 am   BACKBONE|DICT|INTERRES
    85   44   45 1    
    86   44  110 1    
    87   45   46 1    
    88   45   47 1    
    89   45  111 1    
    90   46  112 1    
    91   46  113 1    
    92   46  114 1    
    93   47   48 2    
    94   47   49 am   BACKBONE|DICT|INTERRES
    95   49   50 1    
    96   49  115 1    
    97   50   51 1    
    98   50   52 1    
    99   50  116 1    
   100   51  117 1    
   101   51  118 1    
   102   51  119 1    
   103   52   53 2    
   104   52   54 am   BACKBONE|DICT|INTERRES
   105   54   55 1    
   106   54  120 1    
   107   55   56 1    
   108   55   57 1    
   109   55  121 1    
   110   56  122 1    
   111   56  123 1    
   112   56  124 1    
   113   57   58 2    
   114   57   59 am   BACKBONE|DICT|INTERRES
   115   59   60 1    
   116   59  125 1    
   117   60   61 1    
   118   60   62 1    
   119   60  126 1    
   120   61  127 1    
   121   61  128 1    
   122   61  129 1    
   123   62   63 2    
   124   62   64 am   BACKBONE|DICT|INTERRES
   125   64   65 1    
   126   64  130 1    
   127   65   66 1    
   128   65   69 1    
   129   65  131 1    
   130   66   67 am   BACKBONE|DICT|INTERRES
   131   66   68 2    
   132   67  132 1    
   133   67  133 1    
   134   69   70 1    
   135   69  134 1    
   136   69  135 1    
   137   70   71 1    
   138   71  136 1    
   139   71  137 1    
@<TRIPOS>SUBSTRUCTURE
     1 UNK         1 GROUP             0       ****    0 ROOT    
