@<TRIPOS>MOLECULE
3R137
137   139    1
SMALL
USER_CHARGES


@<TRIPOS>ATOM
      1 CA         29.3055   -0.2285    2.9181 C.3       0 UNK        -0.2020 
      2 C          28.0226   -0.9901    3.2459 C.2       0 UNK         0.4855 
      3 O          27.5904   -0.9626    4.3967 O.2       0 UNK        -0.5197 
      4 N          27.3752   -1.6773    2.2972 N.am      1 UNK        -0.4892 
      5 CA         27.7006   -1.8118    0.8778 C.3       1 UNK         0.0835 
      6 C6         28.9506   -2.7009    0.6280 C.3       12 UNK        -0.0855 
      7 S7         29.7364   -2.3526   -0.9833 S.3       12 UNK        -0.2931 
      8 C8         29.8033   -4.0299   -1.6946 C.3       12 UNK         0.0378 
      9 C9         30.1883   -4.0397   -3.1702 C.ar      12 UNK        -0.0802 
     10 C10        31.3018   -3.3285   -3.6310 C.ar      12 UNK        -0.0944 
     11 C11        31.6608   -3.3625   -4.9819 C.ar      12 UNK        -0.0787 
     12 C12        30.9066   -4.1293   -5.8761 C.ar      12 UNK        -0.0862 
     13 C13        29.7965   -4.8529   -5.4275 C.ar      12 UNK        -0.0733 
     14 C14        29.4436   -4.8017   -4.0756 C.ar      12 UNK        -0.0832 
     15 C15        28.9955   -5.7210   -6.3901 C.3       12 UNK         0.0240 
     16 S16        28.1368   -4.7589   -7.6750 S.3       12 UNK        -0.2522 
     17 C17        26.9360   -3.7831   -6.7051 C.3       12 UNK        -0.0967 
     18 CA         26.5960   -2.4476   -7.4104 C.3       5 UNK         0.0660 
     19 N          25.3249   -1.8810   -6.9556 N.am      5 UNK        -0.4015 
     20 C          24.6539   -0.9184   -7.6048 C.2       4 UNK         0.4946 
     21 O          25.0177   -0.4273   -8.6735 O.2       4 UNK        -0.5353 
     22 CA         23.3808   -0.3849   -6.9280 C.3       4 UNK         0.0277 
     23 CB         22.1993   -1.3419   -7.1541 C.3       4 UNK        -0.1981 
     24 N          23.5611   -0.1476   -5.4939 N.am      4 UNK        -0.4209 
     25 C          24.3919    0.7725   -4.9839 C.2       3 UNK         0.4942 
     26 O          25.0676    1.5411   -5.6675 O.2       3 UNK        -0.5208 
     27 CA         24.5206    0.8220   -3.4522 C.3       3 UNK         0.0250 
     28 CB         23.4019    1.6861   -2.8482 C.3       3 UNK        -0.1990 
     29 N          24.5478   -0.4850   -2.7808 N.am      3 UNK        -0.4232 
     30 C          25.3653   -1.5046   -3.0803 C.2       2 UNK         0.4993 
     31 O          26.1269   -1.5216   -4.0482 O.2       2 UNK        -0.5286 
     32 CA         25.4014   -2.6653   -2.0850 C.3       2 UNK         0.0209 
     33 CB         25.6556   -4.0160   -2.7795 C.3       2 UNK        -0.1931 
     34 N          26.5058   -2.3718   -1.1802 N.am      2 UNK        -0.4546 
     35 C          26.4384   -2.3217    0.1524 C.2       1 UNK         0.5154 
     36 O          25.4356   -2.6365    0.8017 O.2       1 UNK        -0.5181 
     37 C          27.7346   -1.4191   -7.2867 C.2       5 UNK         0.5014 
     38 O          28.5120   -1.2701   -8.2287 O.2       5 UNK        -0.5248 
     39 N          27.7757   -0.6928   -6.1596 N.am      6 UNK        -0.4434 
     40 CA         28.7390    0.3755   -5.8891 C.3       6 UNK         0.0363 
     41 CB         28.5384    0.9153   -4.4660 C.3       6 UNK        -0.1936 
     42 C          28.6984    1.5097   -6.9257 C.2       6 UNK         0.5081 
     43 O          29.7559    2.0042   -7.3203 O.2       6 UNK        -0.5248 
     44 N          27.4873    1.8723   -7.3701 N.am      7 UNK        -0.4718 
     45 CA         27.2541    2.8083   -8.4674 C.3       7 UNK         0.0273 
     46 CB         25.7832    3.2544   -8.4635 C.3       7 UNK        -0.1935 
     47 C          27.6453    2.2184   -9.8321 C.2       7 UNK         0.5018 
     48 O          28.3641    2.8790  -10.5816 O.2       7 UNK        -0.5186 
     49 N          27.1770    0.9963  -10.1318 N.am      8 UNK        -0.4240 
     50 CA         27.3983    0.3106  -11.4110 C.3       8 UNK         0.0235 
     51 CB         26.5431   -0.9647  -11.4778 C.3       8 UNK        -0.2000 
     52 C          28.8731   -0.0162  -11.6960 C.2       8 UNK         0.4941 
     53 O          29.3359    0.2143  -12.8140 O.2       8 UNK        -0.5273 
     54 N          29.5870   -0.5313  -10.6866 N.am      9 UNK        -0.4262 
     55 CA         31.0184   -0.8377  -10.7587 C.3       9 UNK         0.0264 
     56 CB         31.3554   -1.9088   -9.7075 C.3       9 UNK        -0.1955 
     57 C          31.9099    0.4034  -10.5708 C.2       9 UNK         0.5031 
     58 O          33.1089    0.3188  -10.8391 O.2       9 UNK        -0.5390 
     59 N          31.3238    1.5139  -10.0957 N.am      10 UNK        -0.4204 
     60 CA         31.9520    2.8011   -9.7692 C.3       10 UNK         0.0237 
     61 CB         32.5393    3.4686  -11.0310 C.3       10 UNK        -0.1985 
     62 C          32.9641    2.7309   -8.6062 C.2       10 UNK         0.4970 
     63 O          33.7775    3.6442   -8.4542 O.2       10 UNK        -0.4914 
     64 N          32.8888    1.6676   -7.7972 N.am      11 UNK        -0.4285 
     65 CA         33.6786    1.4717   -6.5749 C.3       11 UNK         0.1007 
     66 C          33.1438    2.2663   -5.3472 C.2       11 UNK         0.5703 
     67 N          31.9215    2.7880   -5.3725 N.am      11 UNK        -0.7361 
     68 O          33.8614    2.4279   -4.3629 O.2       11 UNK        -0.4986 
     69 C69        33.8792   -0.0373   -6.2659 C.3       12 UNK        -0.0947 
     70 S70        32.3062   -0.9331   -6.0629 S.3       12 UNK        -0.2240 
     71 C71        32.8545   -2.5570   -5.4718 C.3       12 UNK         0.0194 
     72 H72        29.3740    0.0750    1.8756 H         1 UNK         0.0906 
     73 H73        29.3639    0.6776    3.5208 H         1 UNK         0.0906 
     74 H74        30.1746   -0.8412    3.1553 H         1 UNK         0.0906 
     75 H75        26.4985   -2.1337    2.5261 H         1 UNK         0.3140 
     76 H76        27.8793   -0.8088    0.4857 H         1 UNK         0.1085 
     77 H77        29.7130   -2.5207    1.3856 H         1 UNK         0.0836 
     78 H78        28.7007   -3.7595    0.7231 H         1 UNK         0.0836 
     79 H79        30.5249   -4.6272   -1.1356 H         1 UNK         0.0731 
     80 H80        28.8308   -4.5060   -1.5580 H         1 UNK         0.0731 
     81 H81        31.8855   -2.7388   -2.9373 H         1 UNK         0.1312 
     82 H82        31.1782   -4.1579   -6.9227 H         1 UNK         0.1406 
     83 H83        28.5937   -5.3711   -3.7249 H         1 UNK         0.1631 
     84 H84        28.2622   -6.3266   -5.8552 H         1 UNK         0.0717 
     85 H85        29.6732   -6.4240   -6.8763 H         1 UNK         0.0717 
     86 H86        26.0378   -4.3929   -6.5967 H         1 UNK         0.0934 
     87 H87        27.3063   -3.6076   -5.6936 H         1 UNK         0.0934 
     88 H88        26.4701   -2.6598   -8.4744 H         1 UNK         0.0739 
     89 H89        25.0091   -2.1598   -6.0377 H         1 UNK         0.3093 
     90 H90        23.1372    0.5717   -7.3960 H         1 UNK         0.0818 
     91 H91        21.2722   -0.9275   -6.7577 H         1 UNK         0.0819 
     92 H92        22.0422   -1.5205   -8.2189 H         1 UNK         0.0819 
     93 H93        22.3630   -2.3114   -6.6820 H         1 UNK         0.0819 
     94 H94        23.0418   -0.7337   -4.8565 H         1 UNK         0.3041 
     95 H95        25.4720    1.3075   -3.2287 H         1 UNK         0.0784 
     96 H96        23.3712    2.6703   -3.3185 H         1 UNK         0.0793 
     97 H97        22.4202    1.2301   -2.9826 H         1 UNK         0.0793 
     98 H98        23.5550    1.8462   -1.7807 H         1 UNK         0.0793 
     99 H99        23.9739   -0.5645   -1.9534 H         1 UNK         0.3024 
    100 H100       24.4488   -2.7143   -1.5521 H         1 UNK         0.1171 
    101 H101       24.8688   -4.2387   -3.5012 H         1 UNK         0.0786 
    102 H102       25.6759   -4.8318   -2.0569 H         1 UNK         0.0786 
    103 H103       26.6044   -4.0242   -3.3158 H         1 UNK         0.0786 
    104 H104       27.3708   -2.0933   -1.6283 H         1 UNK         0.2977 
    105 H105       27.1135   -0.9121   -5.4157 H         1 UNK         0.3127 
    106 H106       29.7260   -0.0757   -5.9405 H         1 UNK         0.0770 
    107 H107       27.5663    1.3936   -4.3521 H         1 UNK         0.0814 
    108 H108       29.2992    1.6575   -4.2221 H         1 UNK         0.0814 
    109 H109       28.6127    0.1184   -3.7254 H         1 UNK         0.0814 
    110 H110       26.6663    1.4634   -6.9342 H         1 UNK         0.2983 
    111 H111       27.8757    3.6903   -8.2971 H         1 UNK         0.0947 
    112 H112       25.5849    3.9577   -9.2734 H         1 UNK         0.0806 
    113 H113       25.5251    3.7535   -7.5292 H         1 UNK         0.0806 
    114 H114       25.1028    2.4108   -8.5869 H         1 UNK         0.0806 
    115 H115       26.5713    0.5245   -9.4653 H         1 UNK         0.3000 
    116 H116       27.0573    0.9835  -12.2007 H         1 UNK         0.0850 
    117 H117       26.6833   -1.4816  -12.4281 H         1 UNK         0.0810 
    118 H118       25.4812   -0.7349  -11.3884 H         1 UNK         0.0810 
    119 H119       26.8022   -1.6647  -10.6831 H         1 UNK         0.0810 
    120 H120       29.1243   -0.7279   -9.7966 H         1 UNK         0.3040 
    121 H121       31.2407   -1.2514  -11.7446 H         1 UNK         0.0766 
    122 H122       32.4107   -2.1818   -9.7454 H         1 UNK         0.0812 
    123 H123       31.1450   -1.5589   -8.6971 H         1 UNK         0.0812 
    124 H124       30.7772   -2.8189   -9.8686 H         1 UNK         0.0812 
    125 H125       30.3313    1.4674   -9.9049 H         1 UNK         0.3205 
    126 H126       31.1405    3.4373   -9.4124 H         1 UNK         0.0754 
    127 H127       32.8590    4.4902  -10.8218 H         1 UNK         0.0769 
    128 H128       31.8001    3.5203  -11.8306 H         1 UNK         0.0769 
    129 H129       33.4074    2.9284  -11.4095 H         1 UNK         0.0769 
    130 H130       32.1576    0.9910   -7.9584 H         1 UNK         0.2981 
    131 H131       34.6736    1.8777   -6.7665 H         1 UNK         0.0541 
    132 H132       31.3060    2.6220   -6.1609 H         1 UNK         0.3459 
    133 H133       31.5950    3.3128   -4.5778 H         1 UNK         0.3459 
    134 H134       34.4859   -0.1692   -5.3682 H         1 UNK         0.0612 
    135 H135       34.4346   -0.5088   -7.0780 H         1 UNK         0.0612 
    136 H136       33.3668   -3.0841   -6.2781 H         1 UNK         0.0624 
    137 H137       33.5801   -2.4289   -4.6671 H         1 UNK         0.0624 
@<TRIPOS>BOND
     1    1    2 1    
     2    1   72 1    
     3    1   73 1    
     4    1   74 1    
     5    2    3 2    
     6    2    4 am   BACKBONE|DICT|INTERRES
     7    4    5 1    
     8    4   75 1    
     9    5    6 1    
    10    5   35 1    
    11    5   76 1    
    12    6    7 1    
    13    6   77 1    
    14    6   78 1    
    15    7    8 1    
    16    8    9 1    
    17    8   79 1    
    18    8   80 1    
    19    9   10 ar   
    20    9   14 ar   
    21   10   11 ar   
    22   10   81 1    
    23   11   12 ar   
    24   11   71 1    
    25   12   13 ar   
    26   12   82 1    
    27   13   14 ar   
    28   13   15 1    
    29   14   83 1    
    30   15   16 1    
    31   15   84 1    
    32   15   85 1    
    33   16   17 1    
    34   17   18 1    
    35   17   86 1    
    36   17   87 1    
    37   18   19 1    
    38   18   37 1    
    39   18   88 1    
    40   19   20 am   BACKBONE|DICT|INTERRES
    41   19   89 1    
    42   20   21 2    
    43   20   22 1    
    44   22   23 1    
    45   22   24 1    
    46   22   90 1    
    47   23   91 1    
    48   23   92 1    
    49   23   93 1    
    50   24   25 am   BACKBONE|DICT|INTERRES
    51   24   94 1    
    52   25   26 2    
    53   25   27 1    
    54   27   28 1    
    55   27   29 1    
    56   27   95 1    
    57   28   96 1    
    58   28   97 1    
    59   28   98 1    
    60   29   30 am   BACKBONE|DICT|INTERRES
    61   29   99 1    
    62   30   31 2    
    63   30   32 1    
    64   32   33 1    
    65   32   34 1    
    66   32  100 1    
    67   33  101 1    
    68   33  102 1    
    69   33  103 1    
    70   34   35 am   BACKBONE|DICT|INTERRES
    71   34  104 1    
    72   35   36 2    
    73   37   38 2    
    74   37   39 am   BACKBONE|DICT|INTERRES
    75   39   40 1    
    76   39  105 1    
    77   40   41 1    
    78   40   42 1    
    79   40  106 1    
    80   41  107 1    
    81   41  108 1    
    82   41  109 1    
    83   42   43 2    
    84   42   44 am   BACKBONE|DICT|INTERRES
    85   44   45 1    
    86   44  110 1    
    87   45   46 1    
    88   45   47 1    
    89   45  111 1    
    90   46  112 1    
    91   46  113 1    
    92   46  114 1    
    93   47   48 2    
    94   47   49 am   BACKBONE|DICT|INTERRES
    95   49   50 1    
    96   49  115 1    
    97   50   51 1    
    98   50   52 1    
    99   50  116 1    
   100   51  117 1    
   101   51  118 1    
   102   51  119 1    
   103   52   53 2    
   104   52   54 am   BACKBONE|DICT|INTERRES
   105   54   55 1    
   106   54  120 1    
   107   55   56 1    
   108   55   57 1    
   109   55  121 1    
   110   56  122 1    
   111   56  123 1    
   112   56  124 1    
   113   57   58 2    
   114   57   59 am   BACKBONE|DICT|INTERRES
   115   59   60 1    
   116   59  125 1    
   117   60   61 1    
   118   60   62 1    
   119   60  126 1    
   120   61  127 1    
   121   61  128 1    
   122   61  129 1    
   123   62   63 2    
   124   62   64 am   BACKBONE|DICT|INTERRES
   125   64   65 1    
   126   64  130 1    
   127   65   66 1    
   128   65   69 1    
   129   65  131 1    
   130   66   67 am   BACKBONE|DICT|INTERRES
   131   66   68 2    
   132   67  132 1    
   133   67  133 1    
   134   69   70 1    
   135   69  134 1    
   136   69  135 1    
   137   70   71 1    
   138   71  136 1    
   139   71  137 1    
@<TRIPOS>SUBSTRUCTURE
     1 UNK         1 GROUP             0       ****    0 ROOT    
