@<TRIPOS>MOLECULE
3R137
137   139    1
SMALL
USER_CHARGES


@<TRIPOS>ATOM
      1 CA         24.8565   -5.9786   -5.2945 C.3       0 UNK        -0.2020 
      2 C          25.5199   -5.3383   -4.0852 C.2       0 UNK         0.4855 
      3 O          24.8372   -5.0286   -3.1083 O.2       0 UNK        -0.5197 
      4 N          26.8424   -5.1252   -4.1474 N.am      1 UNK        -0.4892 
      5 CA         27.6661   -4.5152   -3.0945 C.3       1 UNK         0.0835 
      6 C6         29.1743   -4.5099   -3.4736 C.3       12 UNK        -0.0855 
      7 S7         30.2426   -5.1911   -2.1604 S.3       12 UNK        -0.2931 
      8 C8         30.3283   -3.8335   -0.9424 C.3       12 UNK         0.0378 
      9 C9         30.7639   -2.4989   -1.5364 C.ar      12 UNK        -0.0802 
     10 C10        31.9326   -2.3989   -2.2992 C.ar      12 UNK        -0.0944 
     11 C11        32.3215   -1.1728   -2.8470 C.ar      12 UNK        -0.0787 
     12 C12        31.5409   -0.0362   -2.6136 C.ar      12 UNK        -0.0862 
     13 C13        30.3755   -0.1212   -1.8439 C.ar      12 UNK        -0.0733 
     14 C14        29.9957   -1.3535   -1.3066 C.ar      12 UNK        -0.0832 
     15 C15        29.5235    1.1154   -1.5885 C.3       12 UNK         0.0240 
     16 S16        28.0152    1.1314   -2.6094 S.3       12 UNK        -0.2522 
     17 C17        28.7440    1.2511   -4.2715 C.3       12 UNK        -0.0967 
     18 CA         27.7219    1.2390   -5.4271 C.3       5 UNK         0.0660 
     19 N          26.9636   -0.0165   -5.5326 N.am      5 UNK        -0.4015 
     20 C          26.3673   -0.4263   -6.6641 C.2       4 UNK         0.4946 
     21 O          26.3626    0.2338   -7.7026 O.2       4 UNK        -0.5353 
     22 CA         25.6456   -1.7769   -6.6462 C.3       4 UNK         0.0277 
     23 CB         26.6415   -2.9188   -6.9063 C.3       4 UNK        -0.1981 
     24 N          24.9290   -1.9973   -5.3895 N.am      4 UNK        -0.4209 
     25 C          23.7002   -1.5251   -5.1301 C.2       3 UNK         0.4942 
     26 O          23.0475   -0.8565   -5.9312 O.2       3 UNK        -0.5208 
     27 CA         23.0807   -1.8500   -3.7588 C.3       3 UNK         0.0250 
     28 CB         22.1019   -3.0296   -3.8763 C.3       3 UNK        -0.1990 
     29 N          24.0891   -2.1535   -2.7412 N.am      3 UNK        -0.4232 
     30 C          24.7616   -1.2162   -2.0564 C.2       2 UNK         0.4993 
     31 O          24.5299   -0.0108   -2.1479 O.2       2 UNK        -0.5286 
     32 CA         25.9021   -1.6930   -1.1350 C.3       2 UNK         0.0209 
     33 CB         25.3944   -1.8728    0.3042 C.3       2 UNK        -0.1931 
     34 N          26.5549   -2.9310   -1.5765 N.am      2 UNK        -0.4546 
     35 C          27.1613   -3.0964   -2.7605 C.2       1 UNK         0.5154 
     36 O          27.2603   -2.2046   -3.6066 O.2       1 UNK        -0.5181 
     37 C          26.8583    2.5147   -5.5113 C.2       5 UNK         0.5014 
     38 O          27.4053    3.5912   -5.7556 O.2       5 UNK        -0.5248 
     39 N          25.5272    2.3697   -5.4284 N.am      6 UNK        -0.4434 
     40 CA         24.5487    3.3834   -5.8352 C.3       6 UNK         0.0363 
     41 CB         23.1389    2.8970   -5.4648 C.3       6 UNK        -0.1936 
     42 C          24.6239    3.7291   -7.3393 C.2       6 UNK         0.5081 
     43 O          24.2523    4.8392   -7.7192 O.2       6 UNK        -0.5248 
     44 N          25.1330    2.7954   -8.1559 N.am      7 UNK        -0.4718 
     45 CA         25.4589    2.9648   -9.5718 C.3       7 UNK         0.0273 
     46 CB         24.6625    1.9321  -10.3908 C.3       7 UNK        -0.1935 
     47 C          26.9813    2.8348   -9.7863 C.2       7 UNK         0.5018 
     48 O          27.4142    2.3165  -10.8158 O.2       7 UNK        -0.5186 
     49 N          27.7683    3.2886   -8.7979 N.am      8 UNK        -0.4240 
     50 CA         29.2362    3.3586   -8.7336 C.3       8 UNK         0.0235 
     51 CB         29.8112    4.1890   -9.8994 C.3       8 UNK        -0.2000 
     52 C          29.9809    2.0168   -8.5910 C.2       8 UNK         0.4941 
     53 O          31.1607    2.0475   -8.2385 O.2       8 UNK        -0.5273 
     54 N          29.3215    0.8761   -8.8461 N.am      9 UNK        -0.4262 
     55 CA         29.7909   -0.5200   -8.7412 C.3       9 UNK         0.0264 
     56 CB         30.1254   -0.9011   -7.2839 C.3       9 UNK        -0.1955 
     57 C          30.9618   -0.9258   -9.6589 C.2       9 UNK         0.5031 
     58 O          30.9755   -2.0658  -10.1251 O.2       9 UNK        -0.5390 
     59 N          31.9215   -0.0168   -9.8747 N.am      10 UNK        -0.4204 
     60 CA         33.2089   -0.2043  -10.5518 C.3       10 UNK         0.0237 
     61 CB         33.0180   -0.5522  -12.0444 C.3       10 UNK        -0.1985 
     62 C          34.1077   -1.2021   -9.7948 C.2       10 UNK         0.4970 
     63 O          34.6374   -2.1392  -10.3956 O.2       10 UNK        -0.4914 
     64 N          34.2450   -0.9796   -8.4794 N.am      11 UNK        -0.4285 
     65 CA         35.1008   -1.7489   -7.5622 C.3       11 UNK         0.1007 
     66 C          36.5985   -1.7416   -7.9799 C.2       11 UNK         0.5703 
     67 N          37.3001   -2.8524   -7.7988 N.am      11 UNK        -0.7361 
     68 O          37.1366   -0.7274   -8.4218 O.2       11 UNK        -0.4986 
     69 C69        34.9584   -1.2470   -6.1007 C.3       12 UNK        -0.0947 
     70 S70        33.2718   -1.4261   -5.4344 S.3       12 UNK        -0.2240 
     71 C71        33.5918   -1.0760   -3.6783 C.3       12 UNK         0.0194 
     72 H72        25.5860   -6.3108   -6.0329 H         1 UNK         0.0906 
     73 H73        24.2714   -6.8444   -4.9857 H         1 UNK         0.0906 
     74 H74        24.1849   -5.2674   -5.7745 H         1 UNK         0.0906 
     75 H75        27.3407   -5.3966   -4.9827 H         1 UNK         0.3140 
     76 H76        27.5261   -5.1417   -2.2108 H         1 UNK         0.1085 
     77 H77        29.5375   -3.5242   -3.7733 H         1 UNK         0.0836 
     78 H78        29.3489   -5.1372   -4.3490 H         1 UNK         0.0836 
     79 H79        31.0333   -4.1127   -0.1583 H         1 UNK         0.0731 
     80 H80        29.3555   -3.7424   -0.4571 H         1 UNK         0.0731 
     81 H81        32.5337   -3.2803   -2.4769 H         1 UNK         0.1312 
     82 H82        31.8388    0.9136   -3.0363 H         1 UNK         0.1406 
     83 H83        29.0935   -1.4169   -0.7139 H         1 UNK         0.1631 
     84 H84        30.0957    2.0253   -1.7760 H         1 UNK         0.0717 
     85 H85        29.2368    1.1477   -0.5364 H         1 UNK         0.0717 
     86 H86        29.3632    2.1490   -4.3199 H         1 UNK         0.0934 
     87 H87        29.4278    0.4123   -4.4074 H         1 UNK         0.0934 
     88 H88        28.3300    1.2862   -6.3293 H         1 UNK         0.0739 
     89 H89        26.9791   -0.6319   -4.7224 H         1 UNK         0.3093 
     90 H90        24.9249   -1.7752   -7.4672 H         1 UNK         0.0818 
     91 H91        27.1625   -2.7688   -7.8530 H         1 UNK         0.0819 
     92 H92        27.4023   -2.9867   -6.1288 H         1 UNK         0.0819 
     93 H93        26.1333   -3.8798   -6.9713 H         1 UNK         0.0819 
     94 H94        25.4466   -2.4518   -4.6479 H         1 UNK         0.3041 
     95 H95        22.5097   -0.9741   -3.4423 H         1 UNK         0.0784 
     96 H96        21.3092   -2.8077   -4.5921 H         1 UNK         0.0793 
     97 H97        22.5984   -3.9393   -4.2140 H         1 UNK         0.0793 
     98 H98        21.6235   -3.2444   -2.9206 H         1 UNK         0.0793 
     99 H99        24.3403   -3.1313   -2.6224 H         1 UNK         0.3024 
    100 H100       26.6576   -0.9068   -1.1314 H         1 UNK         0.1171 
    101 H101       26.2104   -2.1104    0.9870 H         1 UNK         0.0786 
    102 H102       24.9259   -0.9575    0.6693 H         1 UNK         0.0786 
    103 H103       24.6524   -2.6692    0.3742 H         1 UNK         0.0786 
    104 H104       26.4625   -3.7285   -0.9634 H         1 UNK         0.2977 
    105 H105       25.1645    1.4532   -5.2084 H         1 UNK         0.3127 
    106 H106       24.7595    4.2968   -5.2751 H         1 UNK         0.0770 
    107 H107       22.8759    1.9806   -5.9951 H         1 UNK         0.0814 
    108 H108       22.3887    3.6472   -5.7190 H         1 UNK         0.0814 
    109 H109       23.0527    2.7027   -4.3954 H         1 UNK         0.0814 
    110 H110       25.4322    1.9054   -7.7637 H         1 UNK         0.2983 
    111 H111       25.1778    3.9635   -9.9126 H         1 UNK         0.0947 
    112 H112       24.8358    2.0587  -11.4602 H         1 UNK         0.0806 
    113 H113       23.5905    2.0362  -10.2233 H         1 UNK         0.0806 
    114 H114       24.9448    0.9110  -10.1305 H         1 UNK         0.0806 
    115 H115       27.3028    3.6416   -7.9698 H         1 UNK         0.3000 
    116 H116       29.4500    3.9055   -7.8137 H         1 UNK         0.0850 
    117 H117       30.8808    4.3575   -9.7675 H         1 UNK         0.0810 
    118 H118       29.3365    5.1682   -9.9620 H         1 UNK         0.0810 
    119 H119       29.6814    3.6897  -10.8599 H         1 UNK         0.0810 
    120 H120       28.3687    0.9750   -9.1756 H         1 UNK         0.3040 
    121 H121       28.9425   -1.1329   -9.0499 H         1 UNK         0.0766 
    122 H122       29.2371   -0.9270   -6.6602 H         1 UNK         0.0812 
    123 H123       30.8359   -0.2110   -6.8293 H         1 UNK         0.0812 
    124 H124       30.5667   -1.8975   -7.2276 H         1 UNK         0.0812 
    125 H125       31.8008    0.8679   -9.3801 H         1 UNK         0.3205 
    126 H126       33.7194    0.7589  -10.5063 H         1 UNK         0.0754 
    127 H127       33.9762   -0.5670  -12.5650 H         1 UNK         0.0769 
    128 H128       32.3886    0.1835  -12.5450 H         1 UNK         0.0769 
    129 H129       32.5613   -1.5328  -12.1812 H         1 UNK         0.0769 
    130 H130       33.7663   -0.1923   -8.0691 H         1 UNK         0.2981 
    131 H131       34.7502   -2.7821   -7.6022 H         1 UNK         0.0541 
    132 H132       36.8719   -3.6850   -7.4247 H         1 UNK         0.3459 
    133 H133       38.2767   -2.8610   -8.0488 H         1 UNK         0.3459 
    134 H134       35.6320   -1.8035   -5.4457 H         1 UNK         0.0612 
    135 H135       35.2519   -0.1982   -6.0236 H         1 UNK         0.0612 
    136 H136       34.0285   -0.0806   -3.5837 H         1 UNK         0.0624 
    137 H137       34.3365   -1.7777   -3.2994 H         1 UNK         0.0624 
@<TRIPOS>BOND
     1    1    2 1    
     2    1   72 1    
     3    1   73 1    
     4    1   74 1    
     5    2    3 2    
     6    2    4 am   BACKBONE|DICT|INTERRES
     7    4    5 1    
     8    4   75 1    
     9    5    6 1    
    10    5   35 1    
    11    5   76 1    
    12    6    7 1    
    13    6   77 1    
    14    6   78 1    
    15    7    8 1    
    16    8    9 1    
    17    8   79 1    
    18    8   80 1    
    19    9   10 ar   
    20    9   14 ar   
    21   10   11 ar   
    22   10   81 1    
    23   11   12 ar   
    24   11   71 1    
    25   12   13 ar   
    26   12   82 1    
    27   13   14 ar   
    28   13   15 1    
    29   14   83 1    
    30   15   16 1    
    31   15   84 1    
    32   15   85 1    
    33   16   17 1    
    34   17   18 1    
    35   17   86 1    
    36   17   87 1    
    37   18   19 1    
    38   18   37 1    
    39   18   88 1    
    40   19   20 am   BACKBONE|DICT|INTERRES
    41   19   89 1    
    42   20   21 2    
    43   20   22 1    
    44   22   23 1    
    45   22   24 1    
    46   22   90 1    
    47   23   91 1    
    48   23   92 1    
    49   23   93 1    
    50   24   25 am   BACKBONE|DICT|INTERRES
    51   24   94 1    
    52   25   26 2    
    53   25   27 1    
    54   27   28 1    
    55   27   29 1    
    56   27   95 1    
    57   28   96 1    
    58   28   97 1    
    59   28   98 1    
    60   29   30 am   BACKBONE|DICT|INTERRES
    61   29   99 1    
    62   30   31 2    
    63   30   32 1    
    64   32   33 1    
    65   32   34 1    
    66   32  100 1    
    67   33  101 1    
    68   33  102 1    
    69   33  103 1    
    70   34   35 am   BACKBONE|DICT|INTERRES
    71   34  104 1    
    72   35   36 2    
    73   37   38 2    
    74   37   39 am   BACKBONE|DICT|INTERRES
    75   39   40 1    
    76   39  105 1    
    77   40   41 1    
    78   40   42 1    
    79   40  106 1    
    80   41  107 1    
    81   41  108 1    
    82   41  109 1    
    83   42   43 2    
    84   42   44 am   BACKBONE|DICT|INTERRES
    85   44   45 1    
    86   44  110 1    
    87   45   46 1    
    88   45   47 1    
    89   45  111 1    
    90   46  112 1    
    91   46  113 1    
    92   46  114 1    
    93   47   48 2    
    94   47   49 am   BACKBONE|DICT|INTERRES
    95   49   50 1    
    96   49  115 1    
    97   50   51 1    
    98   50   52 1    
    99   50  116 1    
   100   51  117 1    
   101   51  118 1    
   102   51  119 1    
   103   52   53 2    
   104   52   54 am   BACKBONE|DICT|INTERRES
   105   54   55 1    
   106   54  120 1    
   107   55   56 1    
   108   55   57 1    
   109   55  121 1    
   110   56  122 1    
   111   56  123 1    
   112   56  124 1    
   113   57   58 2    
   114   57   59 am   BACKBONE|DICT|INTERRES
   115   59   60 1    
   116   59  125 1    
   117   60   61 1    
   118   60   62 1    
   119   60  126 1    
   120   61  127 1    
   121   61  128 1    
   122   61  129 1    
   123   62   63 2    
   124   62   64 am   BACKBONE|DICT|INTERRES
   125   64   65 1    
   126   64  130 1    
   127   65   66 1    
   128   65   69 1    
   129   65  131 1    
   130   66   67 am   BACKBONE|DICT|INTERRES
   131   66   68 2    
   132   67  132 1    
   133   67  133 1    
   134   69   70 1    
   135   69  134 1    
   136   69  135 1    
   137   70   71 1    
   138   71  136 1    
   139   71  137 1    
@<TRIPOS>SUBSTRUCTURE
     1 UNK         1 GROUP             0       ****    0 ROOT    
