@<TRIPOS>MOLECULE
3R137
137   139    1
SMALL
USER_CHARGES


@<TRIPOS>ATOM
      1 CA         27.6870   -6.6682    0.1523 C.3       0 UNK        -0.2020 
      2 C          27.5845   -5.2528   -0.3946 C.2       0 UNK         0.4855 
      3 O          27.5299   -5.0756   -1.6107 O.2       0 UNK        -0.5197 
      4 N          27.5533   -4.2522    0.4969 N.am      1 UNK        -0.4892 
      5 CA         27.4795   -2.8007    0.2497 C.3       1 UNK         0.0835 
      6 C6         28.6426   -2.2282   -0.6005 C.3       12 UNK        -0.0855 
      7 S7         30.2942   -2.5338    0.1217 S.3       12 UNK        -0.2931 
      8 C8         31.0321   -3.7257   -1.0477 C.3       12 UNK         0.0378 
      9 C9         31.0471   -3.1993   -2.4765 C.ar      12 UNK        -0.0802 
     10 C10        31.8685   -2.1246   -2.8282 C.ar      12 UNK        -0.0944 
     11 C11        31.8403   -1.6050   -4.1260 C.ar      12 UNK        -0.0787 
     12 C12        30.9829   -2.1701   -5.0764 C.ar      12 UNK        -0.0862 
     13 C13        30.1645   -3.2538   -4.7381 C.ar      12 UNK        -0.0733 
     14 C14        30.2137   -3.7717   -3.4416 C.ar      12 UNK        -0.0832 
     15 C15        29.2273   -3.8674   -5.7686 C.3       12 UNK         0.0240 
     16 S16        27.4781   -3.7275   -5.2642 S.3       12 UNK        -0.2522 
     17 C17        26.6538   -3.6651   -6.8939 C.3       12 UNK        -0.0967 
     18 CA         26.2834   -2.2508   -7.4247 C.3       5 UNK         0.0660 
     19 N          24.9910   -1.7558   -6.9421 N.am      5 UNK        -0.4015 
     20 C          24.2967   -0.7941   -7.5724 C.2       4 UNK         0.4946 
     21 O          24.6781   -0.2402   -8.6047 O.2       4 UNK        -0.5353 
     22 CA         22.9722   -0.3486   -6.9339 C.3       4 UNK         0.0277 
     23 CB         21.8714   -1.3968   -7.1644 C.3       4 UNK        -0.1981 
     24 N          23.0992   -0.0673   -5.5042 N.am      4 UNK        -0.4209 
     25 C          23.8617    0.9053   -4.9833 C.2       3 UNK         0.4942 
     26 O          24.5212    1.6961   -5.6554 O.2       3 UNK        -0.5208 
     27 CA         23.9251    0.9905   -3.4493 C.3       3 UNK         0.0250 
     28 CB         22.8193    1.9143   -2.9145 C.3       3 UNK        -0.1990 
     29 N          23.8412   -0.3138   -2.7834 N.am      3 UNK        -0.4232 
     30 C          24.7227   -1.3091   -2.9503 C.2       2 UNK         0.4993 
     31 O          25.6844   -1.2511   -3.7209 O.2       2 UNK        -0.5286 
     32 CA         24.4647   -2.5961   -2.1517 C.3       2 UNK         0.0209 
     33 CB         24.0584   -3.7465   -3.0873 C.3       2 UNK        -0.1931 
     34 N          25.6564   -2.9807   -1.3995 N.am      2 UNK        -0.4546 
     35 C          26.1238   -2.3368   -0.3235 C.2       1 UNK         0.5154 
     36 O          25.5267   -1.4060    0.2204 O.2       1 UNK        -0.5181 
     37 C          27.3891   -1.1922   -7.2458 C.2       5 UNK         0.5014 
     38 O          28.2084   -1.0343   -8.1483 O.2       5 UNK        -0.5248 
     39 N          27.3687   -0.4631   -6.1188 N.am      6 UNK        -0.4434 
     40 CA         28.3027    0.6255   -5.8253 C.3       6 UNK         0.0363 
     41 CB         28.1185    1.0799   -4.3699 C.3       6 UNK        -0.1936 
     42 C          28.1771    1.8137   -6.7961 C.2       6 UNK         0.5081 
     43 O          29.1811    2.4669   -7.0741 O.2       6 UNK        -0.5248 
     44 N          26.9652    2.0700   -7.3073 N.am      7 UNK        -0.4718 
     45 CA         26.7152    3.0448   -8.3686 C.3       7 UNK         0.0273 
     46 CB         25.2258    3.4250   -8.3852 C.3       7 UNK        -0.1935 
     47 C          27.1613    2.5261   -9.7456 C.2       7 UNK         0.5018 
     48 O          27.7981    3.2724  -10.4902 O.2       7 UNK        -0.5186 
     49 N          26.8078    1.2725  -10.0675 N.am      8 UNK        -0.4240 
     50 CA         27.0932    0.6383  -11.3581 C.3       8 UNK         0.0235 
     51 CB         26.2622   -0.6476  -11.4951 C.3       8 UNK        -0.2000 
     52 C          28.5845    0.3399  -11.5872 C.2       8 UNK         0.4941 
     53 O          29.0819    0.5716  -12.6901 O.2       8 UNK        -0.5273 
     54 N          29.2626   -0.1755  -10.5571 N.am      9 UNK        -0.4262 
     55 CA         30.6661   -0.5715  -10.5722 C.3       9 UNK         0.0264 
     56 CB         30.7527   -2.1097  -10.5531 C.3       9 UNK        -0.1955 
     57 C          31.3543    0.0754   -9.3654 C.2       9 UNK         0.5031 
     58 O          31.6265   -0.5989   -8.3701 O.2       9 UNK        -0.5390 
     59 N          31.5921    1.3891   -9.4685 N.am      10 UNK        -0.4204 
     60 CA         32.2529    2.1993   -8.4445 C.3       10 UNK         0.0237 
     61 CB         32.1913    3.6812   -8.8487 C.3       10 UNK        -0.1985 
     62 C          33.7048    1.7571   -8.2013 C.2       10 UNK         0.4970 
     63 O          34.4439    1.5250   -9.1612 O.2       10 UNK        -0.4914 
     64 N          34.0776    1.6698   -6.9212 N.am      11 UNK        -0.4285 
     65 CA         35.4052    1.2403   -6.4569 C.3       11 UNK         0.1007 
     66 C          36.4843    2.3628   -6.4820 C.2       11 UNK         0.5703 
     67 N          36.1439    3.6136   -6.7717 N.am      11 UNK        -0.7361 
     68 O          37.6589    2.0902   -6.2457 O.2       11 UNK        -0.4986 
     69 C69        35.3152    0.5694   -5.0604 C.3       12 UNK        -0.0947 
     70 S70        34.3532   -0.9827   -5.0798 S.3       12 UNK        -0.2240 
     71 C71        32.7259   -0.4233   -4.4891 C.3       12 UNK         0.0194 
     72 H72        28.5858   -7.1517   -0.2294 H         1 UNK         0.0906 
     73 H73        27.7294   -6.6851    1.2412 H         1 UNK         0.0906 
     74 H74        26.8246   -7.2549   -0.1632 H         1 UNK         0.0906 
     75 H75        27.5804   -4.4954    1.4778 H         1 UNK         0.3140 
     76 H76        27.5541   -2.3421    1.2374 H         1 UNK         0.1085 
     77 H77        28.5879   -2.6117   -1.6186 H         1 UNK         0.0836 
     78 H78        28.5382   -1.1455   -0.6966 H         1 UNK         0.0836 
     79 H79        32.0539   -3.9435   -0.7341 H         1 UNK         0.0731 
     80 H80        30.4869   -4.6685   -0.9870 H         1 UNK         0.0731 
     81 H81        32.5167   -1.6816   -2.0843 H         1 UNK         0.1312 
     82 H82        30.9551   -1.7646   -6.0793 H         1 UNK         0.1406 
     83 H83        29.5703   -4.6004   -3.1773 H         1 UNK         0.1631 
     84 H84        29.3738   -3.3842   -6.7359 H         1 UNK         0.0717 
     85 H85        29.4769   -4.9199   -5.9086 H         1 UNK         0.0717 
     86 H86        27.2984   -4.1620   -7.6212 H         1 UNK         0.0934 
     87 H87        25.7602   -4.2892   -6.8454 H         1 UNK         0.0934 
     88 H88        26.1664   -2.3736   -8.5040 H         1 UNK         0.0739 
     89 H89        24.6584   -2.1218   -6.0622 H         1 UNK         0.3093 
     90 H90        22.6668    0.5773   -7.4266 H         1 UNK         0.0818 
     91 H91        20.9054   -1.0424   -6.8040 H         1 UNK         0.0819 
     92 H92        21.7574   -1.6136   -8.2276 H         1 UNK         0.0819 
     93 H93        22.0918   -2.3393   -6.6616 H         1 UNK         0.0819 
     94 H94        22.5864   -0.6622   -4.8704 H         1 UNK         0.3041 
     95 H95        24.8900    1.4292   -3.1876 H         1 UNK         0.0784 
     96 H96        22.8752    2.8990   -3.3812 H         1 UNK         0.0793 
     97 H97        21.8244    1.5148   -3.1152 H         1 UNK         0.0793 
     98 H98        22.9119    2.0634   -1.8385 H         1 UNK         0.0793 
     99 H99        23.0812   -0.4373   -2.1294 H         1 UNK         0.3024 
    100 H100       23.6523   -2.4258   -1.4416 H         1 UNK         0.1171 
    101 H101       23.8409   -4.6549   -2.5252 H         1 UNK         0.0786 
    102 H102       23.1620   -3.4936   -3.6548 H         1 UNK         0.0786 
    103 H103       24.8456   -3.9804   -3.8047 H         1 UNK         0.0786 
    104 H104       26.2344   -3.7262   -1.7817 H         1 UNK         0.2977 
    105 H105       26.6970   -0.6998   -5.3930 H         1 UNK         0.3127 
    106 H106       29.3137    0.2265   -5.9316 H         1 UNK         0.0770 
    107 H107       27.1193    1.4812   -4.1997 H         1 UNK         0.0814 
    108 H108       28.8350    1.8606   -4.1115 H         1 UNK         0.0814 
    109 H109       28.2720    0.2533   -3.6753 H         1 UNK         0.0814 
    110 H110       26.1648    1.5534   -6.9588 H         1 UNK         0.2983 
    111 H111       27.2899    3.9482   -8.1520 H         1 UNK         0.0947 
    112 H112       25.0155    4.1502   -9.1724 H         1 UNK         0.0806 
    113 H113       24.9236    3.8756   -7.4396 H         1 UNK         0.0806 
    114 H114       24.5871    2.5579   -8.5584 H         1 UNK         0.0806 
    115 H115       26.2448    0.7390   -9.4112 H         1 UNK         0.3000 
    116 H116       26.7740    1.3283  -12.1423 H         1 UNK         0.0850 
    117 H117       26.4334   -1.1234  -12.4616 H         1 UNK         0.0810 
    118 H118       25.1945   -0.4398  -11.4202 H         1 UNK         0.0810 
    119 H119       26.5157   -1.3746  -10.7231 H         1 UNK         0.0810 
    120 H120       28.7809   -0.3418   -9.6714 H         1 UNK         0.3040 
    121 H121       31.1670   -0.2103  -11.4730 H         1 UNK         0.0766 
    122 H122       30.2946   -2.5421  -11.4426 H         1 UNK         0.0812 
    123 H123       30.2504   -2.5304   -9.6805 H         1 UNK         0.0812 
    124 H124       31.7912   -2.4417  -10.5259 H         1 UNK         0.0812 
    125 H125       31.3278    1.8619  -10.3204 H         1 UNK         0.3205 
    126 H126       31.6938    2.0709   -7.5162 H         1 UNK         0.0754 
    127 H127       32.6488    4.3142   -8.0874 H         1 UNK         0.0769 
    128 H128       31.1595    4.0145   -8.9660 H         1 UNK         0.0769 
    129 H129       32.7154    3.8668   -9.7873 H         1 UNK         0.0769 
    130 H130       33.4156    1.9089   -6.1992 H         1 UNK         0.2981 
    131 H131       35.7700    0.4823   -7.1530 H         1 UNK         0.0541 
    132 H132       35.1869    3.8507   -6.9747 H         1 UNK         0.3459 
    133 H133       36.8563    4.3265   -6.7895 H         1 UNK         0.3459 
    134 H134       34.8989    1.2589   -4.3242 H         1 UNK         0.0612 
    135 H135       36.3113    0.3099   -4.6972 H         1 UNK         0.0612 
    136 H136       32.8514    0.2233   -3.6193 H         1 UNK         0.0624 
    137 H137       32.2463    0.1797   -5.2615 H         1 UNK         0.0624 
@<TRIPOS>BOND
     1    1    2 1    
     2    1   72 1    
     3    1   73 1    
     4    1   74 1    
     5    2    3 2    
     6    2    4 am   BACKBONE|DICT|INTERRES
     7    4    5 1    
     8    4   75 1    
     9    5    6 1    
    10    5   35 1    
    11    5   76 1    
    12    6    7 1    
    13    6   77 1    
    14    6   78 1    
    15    7    8 1    
    16    8    9 1    
    17    8   79 1    
    18    8   80 1    
    19    9   10 ar   
    20    9   14 ar   
    21   10   11 ar   
    22   10   81 1    
    23   11   12 ar   
    24   11   71 1    
    25   12   13 ar   
    26   12   82 1    
    27   13   14 ar   
    28   13   15 1    
    29   14   83 1    
    30   15   16 1    
    31   15   84 1    
    32   15   85 1    
    33   16   17 1    
    34   17   18 1    
    35   17   86 1    
    36   17   87 1    
    37   18   19 1    
    38   18   37 1    
    39   18   88 1    
    40   19   20 am   BACKBONE|DICT|INTERRES
    41   19   89 1    
    42   20   21 2    
    43   20   22 1    
    44   22   23 1    
    45   22   24 1    
    46   22   90 1    
    47   23   91 1    
    48   23   92 1    
    49   23   93 1    
    50   24   25 am   BACKBONE|DICT|INTERRES
    51   24   94 1    
    52   25   26 2    
    53   25   27 1    
    54   27   28 1    
    55   27   29 1    
    56   27   95 1    
    57   28   96 1    
    58   28   97 1    
    59   28   98 1    
    60   29   30 am   BACKBONE|DICT|INTERRES
    61   29   99 1    
    62   30   31 2    
    63   30   32 1    
    64   32   33 1    
    65   32   34 1    
    66   32  100 1    
    67   33  101 1    
    68   33  102 1    
    69   33  103 1    
    70   34   35 am   BACKBONE|DICT|INTERRES
    71   34  104 1    
    72   35   36 2    
    73   37   38 2    
    74   37   39 am   BACKBONE|DICT|INTERRES
    75   39   40 1    
    76   39  105 1    
    77   40   41 1    
    78   40   42 1    
    79   40  106 1    
    80   41  107 1    
    81   41  108 1    
    82   41  109 1    
    83   42   43 2    
    84   42   44 am   BACKBONE|DICT|INTERRES
    85   44   45 1    
    86   44  110 1    
    87   45   46 1    
    88   45   47 1    
    89   45  111 1    
    90   46  112 1    
    91   46  113 1    
    92   46  114 1    
    93   47   48 2    
    94   47   49 am   BACKBONE|DICT|INTERRES
    95   49   50 1    
    96   49  115 1    
    97   50   51 1    
    98   50   52 1    
    99   50  116 1    
   100   51  117 1    
   101   51  118 1    
   102   51  119 1    
   103   52   53 2    
   104   52   54 am   BACKBONE|DICT|INTERRES
   105   54   55 1    
   106   54  120 1    
   107   55   56 1    
   108   55   57 1    
   109   55  121 1    
   110   56  122 1    
   111   56  123 1    
   112   56  124 1    
   113   57   58 2    
   114   57   59 am   BACKBONE|DICT|INTERRES
   115   59   60 1    
   116   59  125 1    
   117   60   61 1    
   118   60   62 1    
   119   60  126 1    
   120   61  127 1    
   121   61  128 1    
   122   61  129 1    
   123   62   63 2    
   124   62   64 am   BACKBONE|DICT|INTERRES
   125   64   65 1    
   126   64  130 1    
   127   65   66 1    
   128   65   69 1    
   129   65  131 1    
   130   66   67 am   BACKBONE|DICT|INTERRES
   131   66   68 2    
   132   67  132 1    
   133   67  133 1    
   134   69   70 1    
   135   69  134 1    
   136   69  135 1    
   137   70   71 1    
   138   71  136 1    
   139   71  137 1    
@<TRIPOS>SUBSTRUCTURE
     1 UNK         1 GROUP             0       ****    0 ROOT    
