@<TRIPOS>MOLECULE
3R137
137   139    1
SMALL
USER_CHARGES


@<TRIPOS>ATOM
      1 CA         27.4636   -6.6419    2.3555 C.3       0 UNK        -0.2020 
      2 C          27.0951   -5.1667    2.3986 C.2       0 UNK         0.4855 
      3 O          26.0723   -4.8075    2.9823 O.2       0 UNK        -0.5197 
      4 N          27.9221   -4.3090    1.7871 N.am      1 UNK        -0.4892 
      5 CA         27.7179   -2.8571    1.6905 C.3       1 UNK         0.0835 
      6 C6         29.0264   -2.1128    1.3146 C.3       12 UNK        -0.0855 
      7 S7         29.8964   -2.8197   -0.1298 S.3       12 UNK        -0.2931 
      8 C8         29.5642   -1.5527   -1.3883 C.3       12 UNK         0.0378 
      9 C9         29.8440   -2.0857   -2.7831 C.ar      12 UNK        -0.0802 
     10 C10        31.0088   -1.7275   -3.4655 C.ar      12 UNK        -0.0944 
     11 C11        31.2374   -2.1826   -4.7687 C.ar      12 UNK        -0.0787 
     12 C12        30.2979   -3.0237   -5.3793 C.ar      12 UNK        -0.0862 
     13 C13        29.1405   -3.4106   -4.6932 C.ar      12 UNK        -0.0733 
     14 C14        28.9192   -2.9300   -3.4001 C.ar      12 UNK        -0.0832 
     15 C15        28.1505   -4.3890   -5.3122 C.3       12 UNK         0.0240 
     16 S16        26.4791   -3.6776   -5.4893 S.3       12 UNK        -0.2522 
     17 C17        26.3163   -3.4622   -7.2949 C.3       12 UNK        -0.0967 
     18 CA         26.2599   -1.9893   -7.7603 C.3       5 UNK         0.0660 
     19 N          25.1551   -1.2347   -7.1587 N.am      5 UNK        -0.4015 
     20 C          24.7565   -0.0224   -7.5638 C.2       4 UNK         0.4946 
     21 O          25.2914    0.5878   -8.4912 O.2       4 UNK        -0.5353 
     22 CA         23.5995    0.6481   -6.8043 C.3       4 UNK         0.0277 
     23 CB         22.2371    0.1433   -7.3182 C.3       4 UNK        -0.1981 
     24 N          23.6872    0.5786   -5.3362 N.am      4 UNK        -0.4209 
     25 C          23.5860   -0.4911   -4.5341 C.2       3 UNK         0.4942 
     26 O          23.4522   -1.6486   -4.9390 O.2       3 UNK        -0.5208 
     27 CA         23.5976   -0.1932   -3.0254 C.3       3 UNK         0.0250 
     28 CB         22.2454    0.3950   -2.5854 C.3       3 UNK        -0.1990 
     29 N          23.8587   -1.3964   -2.2350 N.am      3 UNK        -0.4232 
     30 C          25.0745   -1.8893   -1.9722 C.2       2 UNK         0.4993 
     31 O          26.1242   -1.3736   -2.3602 O.2       2 UNK        -0.5286 
     32 CA         25.1066   -3.1908   -1.1481 C.3       2 UNK         0.0209 
     33 CB         25.0800   -4.4211   -2.0698 C.3       2 UNK        -0.1931 
     34 N          26.2579   -3.2986   -0.2461 N.am      2 UNK        -0.4546 
     35 C          26.5311   -2.4734    0.7763 C.2       1 UNK         0.5154 
     36 O          25.8621   -1.4748    1.0485 O.2       1 UNK        -0.5181 
     37 C          27.6209   -1.2787   -7.6248 C.2       5 UNK         0.5014 
     38 O          28.4500   -1.4034   -8.5247 O.2       5 UNK        -0.5248 
     39 N          27.8044   -0.5021   -6.5472 N.am      6 UNK        -0.4434 
     40 CA         28.9765    0.3445   -6.3256 C.3       6 UNK         0.0363 
     41 CB         28.9160    0.9462   -4.9133 C.3       6 UNK        -0.1936 
     42 C          29.1208    1.4551   -7.3781 C.2       6 UNK         0.5081 
     43 O          30.2316    1.7170   -7.8410 O.2       6 UNK        -0.5248 
     44 N          27.9900    2.0649   -7.7608 N.am      7 UNK        -0.4718 
     45 CA         27.9155    3.0828   -8.8092 C.3       7 UNK         0.0273 
     46 CB         26.5922    3.8558   -8.6921 C.3       7 UNK        -0.1935 
     47 C          28.0759    2.4759  -10.2108 C.2       7 UNK         0.5018 
     48 O          28.7223    3.0925  -11.0572 O.2       7 UNK        -0.5186 
     49 N          27.5191    1.2729  -10.4208 N.am      8 UNK        -0.4240 
     50 CA         27.6714    0.4939  -11.6536 C.3       8 UNK         0.0235 
     51 CB         26.7111   -0.7058  -11.6387 C.3       8 UNK        -0.2000 
     52 C          29.1221    0.0338  -11.8838 C.2       8 UNK         0.4941 
     53 O          29.6207    0.1485  -13.0040 O.2       8 UNK        -0.5273 
     54 N          29.7794   -0.4493  -10.8189 N.am      9 UNK        -0.4262 
     55 CA         31.2009   -0.8059  -10.8050 C.3       9 UNK         0.0264 
     56 CB         31.5108   -1.6080   -9.5289 C.3       9 UNK        -0.1955 
     57 C          32.1305    0.4168  -10.8922 C.2       9 UNK         0.5031 
     58 O          33.2458    0.2839  -11.3979 O.2       9 UNK        -0.5390 
     59 N          31.6624    1.5646  -10.3779 N.am      10 UNK        -0.4204 
     60 CA         32.3765    2.8354  -10.2129 C.3       10 UNK         0.0237 
     61 CB         32.7343    3.4573  -11.5794 C.3       10 UNK        -0.1985 
     62 C          33.5834    2.6978   -9.2647 C.2       10 UNK         0.4970 
     63 O          34.6397    3.2807   -9.5172 O.2       10 UNK        -0.4914 
     64 N          33.4029    1.9104   -8.1967 N.am      11 UNK        -0.4285 
     65 CA         34.4345    1.5979   -7.1964 C.3       11 UNK         0.1007 
     66 C          34.6669    2.7060   -6.1274 C.2       11 UNK         0.5703 
     67 N          33.8479    3.7496   -6.0605 N.am      11 UNK        -0.7361 
     68 O          35.6211    2.6259   -5.3571 O.2       11 UNK        -0.4986 
     69 C69        34.2075    0.1966   -6.5689 C.3       12 UNK        -0.0947 
     70 S70        32.6023    0.0316   -5.7230 S.3       12 UNK        -0.2240 
     71 C71        32.5071   -1.7723   -5.5041 C.3       12 UNK         0.0194 
     72 H72        28.3932   -6.8150    1.8135 H         1 UNK         0.0906 
     73 H73        27.5846   -7.0281    3.3673 H         1 UNK         0.0906 
     74 H74        26.6744   -7.2114    1.8654 H         1 UNK         0.0906 
     75 H75        28.7535   -4.6523    1.3246 H         1 UNK         0.3140 
     76 H76        27.4368   -2.5124    2.6887 H         1 UNK         0.1085 
     77 H77        28.8417   -1.0471    1.1636 H         1 UNK         0.0836 
     78 H78        29.7160   -2.1648    2.1586 H         1 UNK         0.0836 
     79 H79        28.5235   -1.2340   -1.3262 H         1 UNK         0.0731 
     80 H80        30.1697   -0.6690   -1.1816 H         1 UNK         0.0731 
     81 H81        31.7318   -1.0776   -2.9917 H         1 UNK         0.1312 
     82 H82        30.4737   -3.3867   -6.3827 H         1 UNK         0.1406 
     83 H83        28.0214   -3.2130   -2.8683 H         1 UNK         0.1631 
     84 H84        28.0797   -5.2617   -4.6616 H         1 UNK         0.0717 
     85 H85        28.5190   -4.7626   -6.2679 H         1 UNK         0.0717 
     86 H86        27.1113   -3.9939   -7.8204 H         1 UNK         0.0934 
     87 H87        25.3957   -3.9645   -7.5961 H         1 UNK         0.0934 
     88 H88        26.0468   -2.0174   -8.8301 H         1 UNK         0.0739 
     89 H89        24.6663   -1.6634   -6.3751 H         1 UNK         0.3093 
     90 H90        23.6566    1.7111   -7.0452 H         1 UNK         0.0818 
     91 H91        21.4129    0.6789   -6.8472 H         1 UNK         0.0819 
     92 H92        22.1481    0.2948   -8.3948 H         1 UNK         0.0819 
     93 H93        22.0954   -0.9214   -7.1300 H         1 UNK         0.0819 
     94 H94        23.8131    1.4757   -4.8868 H         1 UNK         0.3041 
     95 H95        24.3814    0.5405   -2.8231 H         1 UNK         0.0784 
     96 H96        22.0266    1.3252   -3.1115 H         1 UNK         0.0793 
     97 H97        21.4217   -0.2920   -2.7850 H         1 UNK         0.0793 
     98 H98        22.2405    0.6227   -1.5191 H         1 UNK         0.0793 
     99 H99        23.0460   -1.9159   -1.9367 H         1 UNK         0.3024 
    100 H100       24.2118   -3.2122   -0.5219 H         1 UNK         0.1171 
    101 H101       24.9470   -5.3410   -1.5002 H         1 UNK         0.0786 
    102 H102       24.2576   -4.3616   -2.7846 H         1 UNK         0.0786 
    103 H103       26.0012   -4.5141   -2.6444 H         1 UNK         0.0786 
    104 H104       26.8757   -4.0835   -0.3878 H         1 UNK         0.2977 
    105 H105       27.0871   -0.4919   -5.8372 H         1 UNK         0.3127 
    106 H106       29.8538   -0.2969   -6.3992 H         1 UNK         0.0770 
    107 H107       28.0743    1.6297   -4.7969 H         1 UNK         0.0814 
    108 H108       29.8266    1.5048   -4.6926 H         1 UNK         0.0814 
    109 H109       28.8213    0.1701   -4.1549 H         1 UNK         0.0814 
    110 H110       27.1128    1.7469   -7.3738 H         1 UNK         0.2983 
    111 H111       28.7354    3.7892   -8.6588 H         1 UNK         0.0947 
    112 H112       26.5373    4.6459   -9.4423 H         1 UNK         0.0806 
    113 H113       26.4950    4.3304   -7.7157 H         1 UNK         0.0806 
    114 H114       25.7269    3.2089   -8.8391 H         1 UNK         0.0806 
    115 H115       26.9486    0.8719   -9.6831 H         1 UNK         0.3000 
    116 H116       27.3909    1.1415  -12.4872 H         1 UNK         0.0850 
    117 H117       26.7221   -1.2210  -12.6000 H         1 UNK         0.0810 
    118 H118       25.6839   -0.3939  -11.4480 H         1 UNK         0.0810 
    119 H119       26.9887   -1.4361  -10.8795 H         1 UNK         0.0810 
    120 H120       29.2666   -0.6024   -9.9512 H         1 UNK         0.3040 
    121 H121       31.4021   -1.4409  -11.6702 H         1 UNK         0.0766 
    122 H122       31.3042   -1.0282   -8.6279 H         1 UNK         0.0812 
    123 H123       32.5610   -1.9013   -9.4944 H         1 UNK         0.0812 
    124 H124       30.9168   -2.5207   -9.4800 H         1 UNK         0.0812 
    125 H125       30.7595    1.5282   -9.9195 H         1 UNK         0.3205 
    126 H126       31.6771    3.5107   -9.7178 H         1 UNK         0.0754 
    127 H127       33.1432    4.4609  -11.4566 H         1 UNK         0.0769 
    128 H128       31.8531    3.5423  -12.2157 H         1 UNK         0.0769 
    129 H129       33.4788    2.8663  -12.1136 H         1 UNK         0.0769 
    130 H130       32.4835    1.5217   -8.0242 H         1 UNK         0.2981 
    131 H131       35.3832    1.5325   -7.7326 H         1 UNK         0.0541 
    132 H132       33.0591    3.8178   -6.6826 H         1 UNK         0.3459 
    133 H133       34.0128    4.4641   -5.3695 H         1 UNK         0.3459 
    134 H134       35.0036   -0.0478   -5.8635 H         1 UNK         0.0612 
    135 H135       34.2602   -0.5607   -7.3529 H         1 UNK         0.0612 
    136 H136       32.5598   -2.2517   -6.4828 H         1 UNK         0.0624 
    137 H137       33.3752   -2.1133   -4.9385 H         1 UNK         0.0624 
@<TRIPOS>BOND
     1    1    2 1    
     2    1   72 1    
     3    1   73 1    
     4    1   74 1    
     5    2    3 2    
     6    2    4 am   BACKBONE|DICT|INTERRES
     7    4    5 1    
     8    4   75 1    
     9    5    6 1    
    10    5   35 1    
    11    5   76 1    
    12    6    7 1    
    13    6   77 1    
    14    6   78 1    
    15    7    8 1    
    16    8    9 1    
    17    8   79 1    
    18    8   80 1    
    19    9   10 ar   
    20    9   14 ar   
    21   10   11 ar   
    22   10   81 1    
    23   11   12 ar   
    24   11   71 1    
    25   12   13 ar   
    26   12   82 1    
    27   13   14 ar   
    28   13   15 1    
    29   14   83 1    
    30   15   16 1    
    31   15   84 1    
    32   15   85 1    
    33   16   17 1    
    34   17   18 1    
    35   17   86 1    
    36   17   87 1    
    37   18   19 1    
    38   18   37 1    
    39   18   88 1    
    40   19   20 am   BACKBONE|DICT|INTERRES
    41   19   89 1    
    42   20   21 2    
    43   20   22 1    
    44   22   23 1    
    45   22   24 1    
    46   22   90 1    
    47   23   91 1    
    48   23   92 1    
    49   23   93 1    
    50   24   25 am   BACKBONE|DICT|INTERRES
    51   24   94 1    
    52   25   26 2    
    53   25   27 1    
    54   27   28 1    
    55   27   29 1    
    56   27   95 1    
    57   28   96 1    
    58   28   97 1    
    59   28   98 1    
    60   29   30 am   BACKBONE|DICT|INTERRES
    61   29   99 1    
    62   30   31 2    
    63   30   32 1    
    64   32   33 1    
    65   32   34 1    
    66   32  100 1    
    67   33  101 1    
    68   33  102 1    
    69   33  103 1    
    70   34   35 am   BACKBONE|DICT|INTERRES
    71   34  104 1    
    72   35   36 2    
    73   37   38 2    
    74   37   39 am   BACKBONE|DICT|INTERRES
    75   39   40 1    
    76   39  105 1    
    77   40   41 1    
    78   40   42 1    
    79   40  106 1    
    80   41  107 1    
    81   41  108 1    
    82   41  109 1    
    83   42   43 2    
    84   42   44 am   BACKBONE|DICT|INTERRES
    85   44   45 1    
    86   44  110 1    
    87   45   46 1    
    88   45   47 1    
    89   45  111 1    
    90   46  112 1    
    91   46  113 1    
    92   46  114 1    
    93   47   48 2    
    94   47   49 am   BACKBONE|DICT|INTERRES
    95   49   50 1    
    96   49  115 1    
    97   50   51 1    
    98   50   52 1    
    99   50  116 1    
   100   51  117 1    
   101   51  118 1    
   102   51  119 1    
   103   52   53 2    
   104   52   54 am   BACKBONE|DICT|INTERRES
   105   54   55 1    
   106   54  120 1    
   107   55   56 1    
   108   55   57 1    
   109   55  121 1    
   110   56  122 1    
   111   56  123 1    
   112   56  124 1    
   113   57   58 2    
   114   57   59 am   BACKBONE|DICT|INTERRES
   115   59   60 1    
   116   59  125 1    
   117   60   61 1    
   118   60   62 1    
   119   60  126 1    
   120   61  127 1    
   121   61  128 1    
   122   61  129 1    
   123   62   63 2    
   124   62   64 am   BACKBONE|DICT|INTERRES
   125   64   65 1    
   126   64  130 1    
   127   65   66 1    
   128   65   69 1    
   129   65  131 1    
   130   66   67 am   BACKBONE|DICT|INTERRES
   131   66   68 2    
   132   67  132 1    
   133   67  133 1    
   134   69   70 1    
   135   69  134 1    
   136   69  135 1    
   137   70   71 1    
   138   71  136 1    
   139   71  137 1    
@<TRIPOS>SUBSTRUCTURE
     1 UNK         1 GROUP             0       ****    0 ROOT    
