@<TRIPOS>MOLECULE
3R137
137   139    1
SMALL
USER_CHARGES


@<TRIPOS>ATOM
      1 CA         28.4402   -2.4812    1.6078 C.3       0 UNK        -0.2020 
      2 C          29.4400   -1.8023    0.6749 C.2       0 UNK         0.4855 
      3 O          30.1703   -0.9236    1.1277 O.2       0 UNK        -0.5197 
      4 N          29.5211   -2.1416   -0.6222 N.am      1 UNK        -0.4892 
      5 CA         28.7604   -3.1427   -1.3995 C.3       1 UNK         0.0835 
      6 C6         28.7754   -4.5894   -0.8129 C.3       12 UNK        -0.0855 
      7 S7         30.4158   -5.1572   -0.2316 S.3       12 UNK        -0.2931 
      8 C8         30.9706   -6.2305   -1.5929 C.3       12 UNK         0.0378 
      9 C9         31.1188   -5.4523   -2.8899 C.ar      12 UNK        -0.0802 
     10 C10        32.1701   -4.5427   -3.0495 C.ar      12 UNK        -0.0944 
     11 C11        32.2808   -3.7942   -4.2243 C.ar      12 UNK        -0.0787 
     12 C12        31.3489   -3.9764   -5.2456 C.ar      12 UNK        -0.0862 
     13 C13        30.2857   -4.8663   -5.0906 C.ar      12 UNK        -0.0733 
     14 C14        30.1828   -5.6152   -3.9160 C.ar      12 UNK        -0.0832 
     15 C15        29.2234   -4.9809   -6.1712 C.3       12 UNK         0.0240 
     16 S16        27.7116   -4.0875   -5.6926 S.3       12 UNK        -0.2522 
     17 C17        28.2553   -2.3417   -5.7175 C.3       12 UNK        -0.0967 
     18 CA         27.4753   -1.5247   -6.7692 C.3       5 UNK         0.0660 
     19 N          26.0402   -1.5092   -6.4823 N.am      5 UNK        -0.4015 
     20 C          25.0872   -1.2033   -7.3695 C.2       4 UNK         0.4946 
     21 O          25.3112   -0.8882   -8.5381 O.2       4 UNK        -0.5353 
     22 CA         23.6416   -1.2153   -6.8456 C.3       4 UNK         0.0277 
     23 CB         23.1010   -2.6524   -6.7716 C.3       4 UNK        -0.1981 
     24 N          23.5095   -0.5675   -5.5365 N.am      4 UNK        -0.4209 
     25 C          23.7466    0.7339   -5.3224 C.2       3 UNK         0.4942 
     26 O          24.0838    1.5198   -6.2047 O.2       3 UNK        -0.5208 
     27 CA         23.6115    1.2567   -3.8863 C.3       3 UNK         0.0250 
     28 CB         22.1534    1.6489   -3.5976 C.3       3 UNK        -0.1990 
     29 N          24.0907    0.3561   -2.8341 N.am      3 UNK        -0.4232 
     30 C          25.3040   -0.2092   -2.7453 C.2       2 UNK         0.4993 
     31 O          26.1504   -0.1851   -3.6440 O.2       2 UNK        -0.5286 
     32 CA         25.6206   -0.8422   -1.3786 C.3       2 UNK         0.0209 
     33 CB         24.5012   -1.7808   -0.8688 C.3       2 UNK        -0.1931 
     34 N          26.9431   -1.4767   -1.3086 N.am      2 UNK        -0.4546 
     35 C          27.3211   -2.6865   -1.7490 C.2       1 UNK         0.5154 
     36 O          26.5844   -3.4481   -2.3751 O.2       1 UNK        -0.5181 
     37 C          28.0379   -0.0968   -6.9061 C.2       5 UNK         0.5014 
     38 O          28.9320    0.1254   -7.7274 O.2       5 UNK        -0.5248 
     39 N          27.4881    0.8496   -6.1300 N.am      6 UNK        -0.4434 
     40 CA         27.7732    2.2800   -6.2464 C.3       6 UNK         0.0363 
     41 CB         27.1717    3.0358   -5.0520 C.3       6 UNK        -0.1936 
     42 C          27.2760    2.8629   -7.5806 C.2       6 UNK         0.5081 
     43 O          28.0373    3.5606   -8.2485 O.2       6 UNK        -0.5248 
     44 N          26.0369    2.5316   -7.9746 N.am      7 UNK        -0.4718 
     45 CA         25.4293    2.9206   -9.2535 C.3       7 UNK         0.0273 
     46 CB         23.9420    2.5342   -9.2626 C.3       7 UNK        -0.1935 
     47 C          26.1492    2.3209  -10.4726 C.2       7 UNK         0.5018 
     48 O          26.2810    3.0006  -11.4908 O.2       7 UNK        -0.5186 
     49 N          26.6407    1.0813  -10.3340 N.am      8 UNK        -0.4240 
     50 CA         27.5071    0.4111  -11.3087 C.3       8 UNK         0.0235 
     51 CB         27.5548   -1.0918  -10.9863 C.3       8 UNK        -0.2000 
     52 C          28.9364    0.9878  -11.3706 C.2       8 UNK         0.4941 
     53 O          29.6751    0.6336  -12.2903 O.2       8 UNK        -0.5273 
     54 N          29.3059    1.8385  -10.3989 N.am      9 UNK        -0.4262 
     55 CA         30.6164    2.4668  -10.2029 C.3       9 UNK         0.0264 
     56 CB         30.9378    3.4467  -11.3516 C.3       9 UNK        -0.1955 
     57 C          31.7400    1.4453   -9.9441 C.2       9 UNK         0.5031 
     58 O          32.8762    1.6636  -10.3699 O.2       9 UNK        -0.5390 
     59 N          31.4085    0.3488   -9.2465 N.am      10 UNK        -0.4204 
     60 CA         32.3492   -0.7205   -8.9058 C.3       10 UNK         0.0237 
     61 CB         31.5660   -1.9909   -8.5467 C.3       10 UNK        -0.1985 
     62 C          33.3110   -0.3121   -7.7768 C.2       10 UNK         0.4970 
     63 O          34.4988   -0.6278   -7.8513 O.2       10 UNK        -0.4914 
     64 N          32.7856    0.4050   -6.7775 N.am      11 UNK        -0.4285 
     65 CA         33.5369    1.0025   -5.6620 C.3       11 UNK         0.1007 
     66 C          32.8114    2.2224   -5.0212 C.2       11 UNK         0.5703 
     67 N          31.8097    2.8130   -5.6655 N.am      11 UNK        -0.7361 
     68 O          33.1736    2.6651   -3.9338 O.2       11 UNK        -0.4986 
     69 C69        34.0586   -0.0409   -4.6296 C.3       12 UNK        -0.0947 
     70 S70        32.7533   -1.1071   -3.9302 S.3       12 UNK        -0.2240 
     71 C71        33.3731   -2.7541   -4.3913 C.3       12 UNK         0.0194 
     72 H72        27.4806   -2.6697    1.1313 H         1 UNK         0.0906 
     73 H73        28.8455   -3.4261    1.9683 H         1 UNK         0.0906 
     74 H74        28.2489   -1.8515    2.4764 H         1 UNK         0.0906 
     75 H75        30.2163   -1.6556   -1.1725 H         1 UNK         0.3140 
     76 H76        29.2735   -3.1915   -2.3618 H         1 UNK         0.1085 
     77 H77        28.0804   -4.6806    0.0218 H         1 UNK         0.0836 
     78 H78        28.4056   -5.2946   -1.5593 H         1 UNK         0.0836 
     79 H79        30.2709   -7.0598   -1.7093 H         1 UNK         0.0731 
     80 H80        31.9306   -6.6748   -1.3262 H         1 UNK         0.0731 
     81 H81        32.8813   -4.3974   -2.2476 H         1 UNK         0.1312 
     82 H82        31.4335   -3.3915   -6.1470 H         1 UNK         0.1406 
     83 H83        29.3535   -6.2985   -3.7909 H         1 UNK         0.1631 
     84 H84        28.9796   -6.0316   -6.3341 H         1 UNK         0.0717 
     85 H85        29.5882   -4.5970   -7.1255 H         1 UNK         0.0717 
     86 H86        28.1157   -1.9227   -4.7191 H         1 UNK         0.0934 
     87 H87        29.3242   -2.2882   -5.9183 H         1 UNK         0.0934 
     88 H88        27.6154   -2.0109   -7.7369 H         1 UNK         0.0739 
     89 H89        25.7759   -1.7121   -5.5282 H         1 UNK         0.3093 
     90 H90        23.0298   -0.6572   -7.5580 H         1 UNK         0.0818 
     91 H91        22.0489   -2.6664   -6.4867 H         1 UNK         0.0819 
     92 H92        23.1787   -3.1471   -7.7409 H         1 UNK         0.0819 
     93 H93        23.6526   -3.2588   -6.0518 H         1 UNK         0.0819 
     94 H94        23.2379   -1.1452   -4.7542 H         1 UNK         0.3041 
     95 H95        24.2173    2.1619   -3.8194 H         1 UNK         0.0784 
     96 H96        21.7759    2.3363   -4.3564 H         1 UNK         0.0793 
     97 H97        21.4944    0.7797   -3.5891 H         1 UNK         0.0793 
     98 H98        22.0591    2.1522   -2.6352 H         1 UNK         0.0793 
     99 H99        23.4760    0.2582   -2.0391 H         1 UNK         0.3024 
    100 H100       25.6779   -0.0054   -0.6802 H         1 UNK         0.1171 
    101 H101       24.7910   -2.2764    0.0580 H         1 UNK         0.0786 
    102 H102       23.5831   -1.2327   -0.6565 H         1 UNK         0.0786 
    103 H103       24.2541   -2.5541   -1.5970 H         1 UNK         0.0786 
    104 H104       27.6623   -0.9164   -0.8725 H         1 UNK         0.2977 
    105 H105       26.8094    0.5682   -5.4287 H         1 UNK         0.3127 
    106 H106       28.8573    2.4045   -6.2112 H         1 UNK         0.0770 
    107 H107       26.0834    2.9888   -5.0494 H         1 UNK         0.0814 
    108 H108       27.4502    4.0899   -5.0810 H         1 UNK         0.0814 
    109 H109       27.5278    2.6307   -4.1046 H         1 UNK         0.0814 
    110 H110       25.4439    1.9993   -7.3395 H         1 UNK         0.2983 
    111 H111       25.5000    4.0074   -9.3353 H         1 UNK         0.0947 
    112 H112       23.4679    2.8201  -10.2025 H         1 UNK         0.0806 
    113 H113       23.3986    3.0341   -8.4606 H         1 UNK         0.0806 
    114 H114       23.8046    1.4592   -9.1393 H         1 UNK         0.0806 
    115 H115       26.4034    0.5571   -9.4971 H         1 UNK         0.3000 
    116 H116       27.0640    0.5354  -12.2990 H         1 UNK         0.0850 
    117 H117       28.1408   -1.6340  -11.7296 H         1 UNK         0.0810 
    118 H118       26.5565   -1.5297  -10.9796 H         1 UNK         0.0810 
    119 H119       28.0105   -1.2788  -10.0140 H         1 UNK         0.0810 
    120 H120       28.6196    2.0702   -9.6901 H         1 UNK         0.3040 
    121 H121       30.5332    3.0549   -9.2881 H         1 UNK         0.0766 
    122 H122       31.1037    2.9257  -12.2950 H         1 UNK         0.0812 
    123 H123       31.8395    4.0208  -11.1353 H         1 UNK         0.0812 
    124 H124       30.1281    4.1612  -11.5000 H         1 UNK         0.0812 
    125 H125       30.4567    0.2581   -8.8959 H         1 UNK         0.3205 
    126 H126       32.9532   -0.9400   -9.7891 H         1 UNK         0.0754 
    127 H127       32.2429   -2.8066   -8.2896 H         1 UNK         0.0769 
    128 H128       30.9563   -2.3282   -9.3854 H         1 UNK         0.0769 
    129 H129       30.9008   -1.8231   -7.7007 H         1 UNK         0.0769 
    130 H130       31.7916    0.5776   -6.7709 H         1 UNK         0.2981 
    131 H131       34.4237    1.4571   -6.1072 H         1 UNK         0.0541 
    132 H132       31.5476    2.5419   -6.5967 H         1 UNK         0.3459 
    133 H133       31.3669    3.6080   -5.2326 H         1 UNK         0.3459 
    134 H134       34.5779    0.4508   -3.8055 H         1 UNK         0.0612 
    135 H135       34.8168   -0.6651   -5.1036 H         1 UNK         0.0612 
    136 H136       33.7119   -2.7435   -5.4288 H         1 UNK         0.0624 
    137 H137       34.2414   -3.0018   -3.7789 H         1 UNK         0.0624 
@<TRIPOS>BOND
     1    1    2 1    
     2    1   72 1    
     3    1   73 1    
     4    1   74 1    
     5    2    3 2    
     6    2    4 am   BACKBONE|DICT|INTERRES
     7    4    5 1    
     8    4   75 1    
     9    5    6 1    
    10    5   35 1    
    11    5   76 1    
    12    6    7 1    
    13    6   77 1    
    14    6   78 1    
    15    7    8 1    
    16    8    9 1    
    17    8   79 1    
    18    8   80 1    
    19    9   10 ar   
    20    9   14 ar   
    21   10   11 ar   
    22   10   81 1    
    23   11   12 ar   
    24   11   71 1    
    25   12   13 ar   
    26   12   82 1    
    27   13   14 ar   
    28   13   15 1    
    29   14   83 1    
    30   15   16 1    
    31   15   84 1    
    32   15   85 1    
    33   16   17 1    
    34   17   18 1    
    35   17   86 1    
    36   17   87 1    
    37   18   19 1    
    38   18   37 1    
    39   18   88 1    
    40   19   20 am   BACKBONE|DICT|INTERRES
    41   19   89 1    
    42   20   21 2    
    43   20   22 1    
    44   22   23 1    
    45   22   24 1    
    46   22   90 1    
    47   23   91 1    
    48   23   92 1    
    49   23   93 1    
    50   24   25 am   BACKBONE|DICT|INTERRES
    51   24   94 1    
    52   25   26 2    
    53   25   27 1    
    54   27   28 1    
    55   27   29 1    
    56   27   95 1    
    57   28   96 1    
    58   28   97 1    
    59   28   98 1    
    60   29   30 am   BACKBONE|DICT|INTERRES
    61   29   99 1    
    62   30   31 2    
    63   30   32 1    
    64   32   33 1    
    65   32   34 1    
    66   32  100 1    
    67   33  101 1    
    68   33  102 1    
    69   33  103 1    
    70   34   35 am   BACKBONE|DICT|INTERRES
    71   34  104 1    
    72   35   36 2    
    73   37   38 2    
    74   37   39 am   BACKBONE|DICT|INTERRES
    75   39   40 1    
    76   39  105 1    
    77   40   41 1    
    78   40   42 1    
    79   40  106 1    
    80   41  107 1    
    81   41  108 1    
    82   41  109 1    
    83   42   43 2    
    84   42   44 am   BACKBONE|DICT|INTERRES
    85   44   45 1    
    86   44  110 1    
    87   45   46 1    
    88   45   47 1    
    89   45  111 1    
    90   46  112 1    
    91   46  113 1    
    92   46  114 1    
    93   47   48 2    
    94   47   49 am   BACKBONE|DICT|INTERRES
    95   49   50 1    
    96   49  115 1    
    97   50   51 1    
    98   50   52 1    
    99   50  116 1    
   100   51  117 1    
   101   51  118 1    
   102   51  119 1    
   103   52   53 2    
   104   52   54 am   BACKBONE|DICT|INTERRES
   105   54   55 1    
   106   54  120 1    
   107   55   56 1    
   108   55   57 1    
   109   55  121 1    
   110   56  122 1    
   111   56  123 1    
   112   56  124 1    
   113   57   58 2    
   114   57   59 am   BACKBONE|DICT|INTERRES
   115   59   60 1    
   116   59  125 1    
   117   60   61 1    
   118   60   62 1    
   119   60  126 1    
   120   61  127 1    
   121   61  128 1    
   122   61  129 1    
   123   62   63 2    
   124   62   64 am   BACKBONE|DICT|INTERRES
   125   64   65 1    
   126   64  130 1    
   127   65   66 1    
   128   65   69 1    
   129   65  131 1    
   130   66   67 am   BACKBONE|DICT|INTERRES
   131   66   68 2    
   132   67  132 1    
   133   67  133 1    
   134   69   70 1    
   135   69  134 1    
   136   69  135 1    
   137   70   71 1    
   138   71  136 1    
   139   71  137 1    
@<TRIPOS>SUBSTRUCTURE
     1 UNK         1 GROUP             0       ****    0 ROOT    
