@<TRIPOS>MOLECULE
3R137
137   139    1
SMALL
USER_CHARGES


@<TRIPOS>ATOM
      1 CA         27.1199   -2.2639    1.4259 C.3       0 UNK        -0.2020 
      2 C          27.7920   -1.2836    0.4686 C.2       0 UNK         0.4855 
      3 O          27.5747   -0.0809    0.6000 O.2       0 UNK        -0.5197 
      4 N          28.6145   -1.7161   -0.4983 N.am      1 UNK        -0.4892 
      5 CA         28.9741   -3.0946   -0.8772 C.3       1 UNK         0.0835 
      6 C6         29.6840   -3.9348    0.2251 C.3       12 UNK        -0.0855 
      7 S7         31.0065   -3.0305    1.1103 S.3       12 UNK        -0.2931 
      8 C8         32.5242   -3.5297    0.2174 C.3       12 UNK         0.0378 
      9 C9         32.6874   -2.9518   -1.1914 C.ar      12 UNK        -0.0802 
     10 C10        33.5418   -3.5994   -2.0893 C.ar      12 UNK        -0.0944 
     11 C11        33.7307   -3.1164   -3.3888 C.ar      12 UNK        -0.0787 
     12 C12        33.0307   -1.9724   -3.7958 C.ar      12 UNK        -0.0862 
     13 C13        32.1557   -1.3251   -2.9198 C.ar      12 UNK        -0.0733 
     14 C14        32.0285   -1.7893   -1.6088 C.ar      12 UNK        -0.0832 
     15 C15        31.3146   -0.1477   -3.3892 C.3       12 UNK         0.0240 
     16 S16        29.6204   -0.6983   -3.7749 S.3       12 UNK        -0.2522 
     17 C17        28.7664    0.8868   -4.0664 C.3       12 UNK        -0.0967 
     18 CA         28.4323    1.1295   -5.5596 C.3       5 UNK         0.0660 
     19 N          27.5486    0.1013   -6.1246 N.am      5 UNK        -0.4015 
     20 C          27.2933   -0.0310   -7.4368 C.2       4 UNK         0.4946 
     21 O          27.7923    0.6922   -8.2997 O.2       4 UNK        -0.5353 
     22 CA         26.2882   -1.1058   -7.8862 C.3       4 UNK         0.0277 
     23 CB         27.0311   -2.3920   -8.2791 C.3       4 UNK        -0.1981 
     24 N          25.2595   -1.4244   -6.8960 N.am      4 UNK        -0.4209 
     25 C          24.4262   -0.5521   -6.3093 C.2       3 UNK         0.4942 
     26 O          24.3754    0.6459   -6.5925 O.2       3 UNK        -0.5208 
     27 CA         23.5670   -1.0984   -5.1524 C.3       3 UNK         0.0250 
     28 CB         22.1861   -1.5310   -5.6688 C.3       3 UNK        -0.1990 
     29 N          24.1955   -2.2134   -4.4245 N.am      3 UNK        -0.4232 
     30 C          25.3961   -2.1483   -3.8299 C.2       2 UNK         0.4993 
     31 O          26.0883   -1.1253   -3.8085 O.2       2 UNK        -0.5286 
     32 CA         25.9508   -3.4452   -3.2269 C.3       2 UNK         0.0209 
     33 CB         26.3195   -4.4525   -4.3346 C.3       2 UNK        -0.1931 
     34 N          27.1397   -3.0808   -2.4678 N.am      2 UNK        -0.4546 
     35 C          27.7886   -3.8089   -1.5555 C.2       1 UNK         0.5154 
     36 O          27.4677   -4.9527   -1.2298 O.2       1 UNK        -0.5181 
     37 C          27.8642    2.5514   -5.7531 C.2       5 UNK         0.5014 
     38 O          28.6464    3.4990   -5.8331 O.2       5 UNK        -0.5248 
     39 N          26.5322    2.6778   -5.8372 N.am      6 UNK        -0.4434 
     40 CA         25.8392    3.9286   -6.1364 C.3       6 UNK         0.0363 
     41 CB         24.5623    4.0208   -5.2842 C.3       6 UNK        -0.1936 
     42 C          25.4982    4.0255   -7.6302 C.2       6 UNK         0.5081 
     43 O          25.6915    5.0859   -8.2245 O.2       6 UNK        -0.5248 
     44 N          24.9756    2.9326   -8.2051 N.am      7 UNK        -0.4718 
     45 CA         24.4410    2.8972   -9.5679 C.3       7 UNK         0.0273 
     46 CB         23.5457    1.6581   -9.7309 C.3       7 UNK        -0.1935 
     47 C          25.5099    2.9382  -10.6719 C.2       7 UNK         0.5018 
     48 O          25.2754    3.5779  -11.6983 O.2       7 UNK        -0.5186 
     49 N          26.6369    2.2446  -10.4641 N.am      8 UNK        -0.4240 
     50 CA         27.6983    2.0737  -11.4634 C.3       8 UNK         0.0235 
     51 CB         27.7495    0.5895  -11.8693 C.3       8 UNK        -0.2000 
     52 C          29.0799    2.5308  -10.9689 C.2       8 UNK         0.4941 
     53 O          29.9757    2.6949  -11.7978 O.2       8 UNK        -0.5273 
     54 N          29.2408    2.6906   -9.6463 N.am      9 UNK        -0.4262 
     55 CA         30.5052    2.8537   -8.9184 C.3       9 UNK         0.0264 
     56 CB         31.2159    4.1719   -9.2941 C.3       9 UNK        -0.1955 
     57 C          31.4012    1.6057   -9.0566 C.2       9 UNK         0.5031 
     58 O          32.6133    1.7320   -9.2433 O.2       9 UNK        -0.5390 
     59 N          30.7766    0.4238   -8.9766 N.am      10 UNK        -0.4204 
     60 CA         31.4095   -0.8879   -9.1062 C.3       10 UNK         0.0237 
     61 CB         30.9044   -1.5500  -10.3998 C.3       10 UNK        -0.1985 
     62 C          31.0626   -1.7499   -7.8866 C.2       10 UNK         0.4970 
     63 O          30.0969   -1.4558   -7.1850 O.2       10 UNK        -0.4914 
     64 N          31.8493   -2.8046   -7.6579 N.am      11 UNK        -0.4285 
     65 CA         31.6451   -3.7624   -6.5606 C.3       11 UNK         0.1007 
     66 C          30.3793   -4.6420   -6.7530 C.2       11 UNK         0.5703 
     67 N          29.7650   -5.0880   -5.6656 N.am      11 UNK        -0.7361 
     68 O          29.9789   -4.9612   -7.8712 O.2       11 UNK        -0.4986 
     69 C69        32.9009   -4.6434   -6.3288 C.3       12 UNK        -0.0947 
     70 S70        34.4254   -3.6666   -6.0925 S.3       12 UNK        -0.2240 
     71 C71        34.7244   -3.8401   -4.3000 C.3       12 UNK         0.0194 
     72 H72        26.2868   -1.7807    1.9360 H         1 UNK         0.0906 
     73 H73        27.8272   -2.5906    2.1873 H         1 UNK         0.0906 
     74 H74        26.7205   -3.1380    0.9162 H         1 UNK         0.0906 
     75 H75        29.0143   -1.0109   -1.1014 H         1 UNK         0.3140 
     76 H76        29.6940   -2.9932   -1.6880 H         1 UNK         0.1085 
     77 H77        30.1086   -4.8394   -0.2140 H         1 UNK         0.0836 
     78 H78        28.9678   -4.2859    0.9683 H         1 UNK         0.0836 
     79 H79        33.3841   -3.2168    0.8109 H         1 UNK         0.0731 
     80 H80        32.5598   -4.6196    0.1790 H         1 UNK         0.0731 
     81 H81        34.0758   -4.4840   -1.7686 H         1 UNK         0.1312 
     82 H82        33.1498   -1.5876   -4.7988 H         1 UNK         0.1406 
     83 H83        31.3777   -1.2596   -0.9284 H         1 UNK         0.1631 
     84 H84        31.7536    0.3159   -4.2741 H         1 UNK         0.0717 
     85 H85        31.2884    0.6175   -2.6119 H         1 UNK         0.0717 
     86 H86        27.8548    0.8958   -3.4658 H         1 UNK         0.0934 
     87 H87        29.3861    1.6971   -3.6769 H         1 UNK         0.0934 
     88 H88        29.3699    1.0871   -6.1183 H         1 UNK         0.0739 
     89 H89        27.0989   -0.5140   -5.4545 H         1 UNK         0.3093 
     90 H90        25.7802   -0.7227   -8.7723 H         1 UNK         0.0818 
     91 H91        27.7838   -2.1890   -9.0419 H         1 UNK         0.0819 
     92 H92        27.5499   -2.8354   -7.4277 H         1 UNK         0.0819 
     93 H93        26.3514   -3.1393   -8.6885 H         1 UNK         0.0819 
     94 H94        25.2188   -2.3844   -6.5884 H         1 UNK         0.3041 
     95 H95        23.4278   -0.2804   -4.4423 H         1 UNK         0.0784 
     96 H96        21.6936   -0.7125   -6.1962 H         1 UNK         0.0793 
     97 H97        22.2573   -2.3696   -6.3628 H         1 UNK         0.0793 
     98 H98        21.5300   -1.8262   -4.8497 H         1 UNK         0.0793 
     99 H99        23.6850   -3.0851   -4.4036 H         1 UNK         0.3024 
    100 H100       25.2068   -3.8728   -2.5513 H         1 UNK         0.1171 
    101 H101       25.4431   -4.7474   -4.9125 H         1 UNK         0.0786 
    102 H102       27.0468   -4.0326   -5.0310 H         1 UNK         0.0786 
    103 H103       26.7464   -5.3651   -3.9187 H         1 UNK         0.0786 
    104 H104       27.4351   -2.1257   -2.6437 H         1 UNK         0.2977 
    105 H105       25.9587    1.8430   -5.8013 H         1 UNK         0.3127 
    106 H106       26.4728    4.7809   -5.8807 H         1 UNK         0.0770 
    107 H107       23.8777    3.1952   -5.4835 H         1 UNK         0.0814 
    108 H108       24.0242    4.9475   -5.4881 H         1 UNK         0.0814 
    109 H109       24.7969    4.0102   -4.2198 H         1 UNK         0.0814 
    110 H110       24.8104    2.1075   -7.6321 H         1 UNK         0.2983 
    111 H111       23.8108    3.7801   -9.6990 H         1 UNK         0.0947 
    112 H112       24.1054    0.7327   -9.5982 H         1 UNK         0.0806 
    113 H113       23.0968    1.6282  -10.7247 H         1 UNK         0.0806 
    114 H114       22.7302    1.6605   -9.0073 H         1 UNK         0.0806 
    115 H115       26.7548    1.7398   -9.5914 H         1 UNK         0.3000 
    116 H116       27.4833    2.6623  -12.3577 H         1 UNK         0.0850 
    117 H117       28.5273    0.4109  -12.6131 H         1 UNK         0.0810 
    118 H118       26.8044    0.2663  -12.3058 H         1 UNK         0.0810 
    119 H119       27.9611   -0.0544  -11.0148 H         1 UNK         0.0810 
    120 H120       28.4516    2.4419   -9.0624 H         1 UNK         0.3040 
    121 H121       30.2437    2.9171   -7.8625 H         1 UNK         0.0766 
    122 H122       31.5850    4.1602  -10.3198 H         1 UNK         0.0812 
    123 H123       32.0743    4.3477   -8.6449 H         1 UNK         0.0812 
    124 H124       30.5479    5.0263   -9.1860 H         1 UNK         0.0812 
    125 H125       29.7886    0.4074   -8.7381 H         1 UNK         0.3205 
    126 H126       32.4959   -0.7875   -9.1533 H         1 UNK         0.0754 
    127 H127       31.3706   -2.5240  -10.5536 H         1 UNK         0.0769 
    128 H128       31.1361   -0.9383  -11.2722 H         1 UNK         0.0769 
    129 H129       29.8251   -1.7044  -10.3790 H         1 UNK         0.0769 
    130 H130       32.6146   -3.0042   -8.2839 H         1 UNK         0.2981 
    131 H131       31.4763   -3.1750   -5.6574 H         1 UNK         0.0541 
    132 H132       28.9594   -5.6830   -5.7716 H         1 UNK         0.3459 
    133 H133       30.0962   -4.8470   -4.7456 H         1 UNK         0.3459 
    134 H134       33.0612   -5.3060   -7.1812 H         1 UNK         0.0612 
    135 H135       32.7563   -5.2930   -5.4636 H         1 UNK         0.0612 
    136 H136       35.7210   -3.4529   -4.0855 H         1 UNK         0.0624 
    137 H137       34.7510   -4.9040   -4.0587 H         1 UNK         0.0624 
@<TRIPOS>BOND
     1    1    2 1    
     2    1   72 1    
     3    1   73 1    
     4    1   74 1    
     5    2    3 2    
     6    2    4 am   BACKBONE|DICT|INTERRES
     7    4    5 1    
     8    4   75 1    
     9    5    6 1    
    10    5   35 1    
    11    5   76 1    
    12    6    7 1    
    13    6   77 1    
    14    6   78 1    
    15    7    8 1    
    16    8    9 1    
    17    8   79 1    
    18    8   80 1    
    19    9   10 ar   
    20    9   14 ar   
    21   10   11 ar   
    22   10   81 1    
    23   11   12 ar   
    24   11   71 1    
    25   12   13 ar   
    26   12   82 1    
    27   13   14 ar   
    28   13   15 1    
    29   14   83 1    
    30   15   16 1    
    31   15   84 1    
    32   15   85 1    
    33   16   17 1    
    34   17   18 1    
    35   17   86 1    
    36   17   87 1    
    37   18   19 1    
    38   18   37 1    
    39   18   88 1    
    40   19   20 am   BACKBONE|DICT|INTERRES
    41   19   89 1    
    42   20   21 2    
    43   20   22 1    
    44   22   23 1    
    45   22   24 1    
    46   22   90 1    
    47   23   91 1    
    48   23   92 1    
    49   23   93 1    
    50   24   25 am   BACKBONE|DICT|INTERRES
    51   24   94 1    
    52   25   26 2    
    53   25   27 1    
    54   27   28 1    
    55   27   29 1    
    56   27   95 1    
    57   28   96 1    
    58   28   97 1    
    59   28   98 1    
    60   29   30 am   BACKBONE|DICT|INTERRES
    61   29   99 1    
    62   30   31 2    
    63   30   32 1    
    64   32   33 1    
    65   32   34 1    
    66   32  100 1    
    67   33  101 1    
    68   33  102 1    
    69   33  103 1    
    70   34   35 am   BACKBONE|DICT|INTERRES
    71   34  104 1    
    72   35   36 2    
    73   37   38 2    
    74   37   39 am   BACKBONE|DICT|INTERRES
    75   39   40 1    
    76   39  105 1    
    77   40   41 1    
    78   40   42 1    
    79   40  106 1    
    80   41  107 1    
    81   41  108 1    
    82   41  109 1    
    83   42   43 2    
    84   42   44 am   BACKBONE|DICT|INTERRES
    85   44   45 1    
    86   44  110 1    
    87   45   46 1    
    88   45   47 1    
    89   45  111 1    
    90   46  112 1    
    91   46  113 1    
    92   46  114 1    
    93   47   48 2    
    94   47   49 am   BACKBONE|DICT|INTERRES
    95   49   50 1    
    96   49  115 1    
    97   50   51 1    
    98   50   52 1    
    99   50  116 1    
   100   51  117 1    
   101   51  118 1    
   102   51  119 1    
   103   52   53 2    
   104   52   54 am   BACKBONE|DICT|INTERRES
   105   54   55 1    
   106   54  120 1    
   107   55   56 1    
   108   55   57 1    
   109   55  121 1    
   110   56  122 1    
   111   56  123 1    
   112   56  124 1    
   113   57   58 2    
   114   57   59 am   BACKBONE|DICT|INTERRES
   115   59   60 1    
   116   59  125 1    
   117   60   61 1    
   118   60   62 1    
   119   60  126 1    
   120   61  127 1    
   121   61  128 1    
   122   61  129 1    
   123   62   63 2    
   124   62   64 am   BACKBONE|DICT|INTERRES
   125   64   65 1    
   126   64  130 1    
   127   65   66 1    
   128   65   69 1    
   129   65  131 1    
   130   66   67 am   BACKBONE|DICT|INTERRES
   131   66   68 2    
   132   67  132 1    
   133   67  133 1    
   134   69   70 1    
   135   69  134 1    
   136   69  135 1    
   137   70   71 1    
   138   71  136 1    
   139   71  137 1    
@<TRIPOS>SUBSTRUCTURE
     1 UNK         1 GROUP             0       ****    0 ROOT    
