@<TRIPOS>MOLECULE
3R137
137   139    1
SMALL
USER_CHARGES


@<TRIPOS>ATOM
      1 CA         24.6731   -1.9040   -1.3051 C.3       0 UNK        -0.2020 
      2 C          25.5003   -3.1583   -1.0615 C.2       0 UNK         0.4855 
      3 O          25.0401   -4.0601   -0.3612 O.2       0 UNK        -0.5197 
      4 N          26.7076   -3.1964   -1.6387 N.am      1 UNK        -0.4892 
      5 CA         27.6782   -4.2979   -1.6755 C.3       1 UNK         0.0835 
      6 C6         28.0177   -4.9802   -0.3214 C.3       12 UNK        -0.0855 
      7 S7         28.5589   -3.8285    0.9881 S.3       12 UNK        -0.2931 
      8 C8         30.3500   -3.6955    0.6757 C.3       12 UNK         0.0378 
      9 C9         30.6440   -2.7067   -0.4426 C.ar      12 UNK        -0.0802 
     10 C10        31.0852   -3.1495   -1.6941 C.ar      12 UNK        -0.0944 
     11 C11        31.3061   -2.2367   -2.7309 C.ar      12 UNK        -0.0787 
     12 C12        31.1287   -0.8704   -2.4935 C.ar      12 UNK        -0.0862 
     13 C13        30.6800   -0.4191   -1.2506 C.ar      12 UNK        -0.0733 
     14 C14        30.4480   -1.3396   -0.2263 C.ar      12 UNK        -0.0832 
     15 C15        30.4063    1.0574   -1.0267 C.3       12 UNK         0.0240 
     16 S16        28.6392    1.4124   -1.2877 S.3       12 UNK        -0.2522 
     17 C17        28.6966    2.8097   -2.4572 C.3       12 UNK        -0.0967 
     18 CA         28.5148    2.3690   -3.9321 C.3       5 UNK         0.0660 
     19 N          27.2517    1.6526   -4.1438 N.am      5 UNK        -0.4015 
     20 C          26.8160    1.1391   -5.3029 C.2       4 UNK         0.4946 
     21 O          27.4152    1.2300   -6.3767 O.2       4 UNK        -0.5353 
     22 CA         25.4538    0.4248   -5.2636 C.3       4 UNK         0.0277 
     23 CB         24.3724    1.2952   -5.9237 C.3       4 UNK        -0.1981 
     24 N          25.5040   -0.8736   -5.9395 N.am      4 UNK        -0.4209 
     25 C          26.1893   -1.9321   -5.4903 C.2       3 UNK         0.4942 
     26 O          26.7999   -1.9442   -4.4151 O.2       3 UNK        -0.5208 
     27 CA         26.1739   -3.1905   -6.3766 C.3       3 UNK         0.0250 
     28 CB         26.6576   -2.9204   -7.8128 C.3       3 UNK        -0.1990 
     29 N          27.0328   -4.1791   -5.7450 N.am      3 UNK        -0.4232 
     30 C          26.9854   -5.5085   -5.8810 C.2       2 UNK         0.4993 
     31 O          26.2571   -6.0970   -6.6807 O.2       2 UNK        -0.5286 
     32 CA         27.8895   -6.3199   -4.9317 C.3       2 UNK         0.0209 
     33 CB         29.2029   -6.7073   -5.6311 C.3       2 UNK        -0.1931 
     34 N          28.1901   -5.5842   -3.6962 N.am      2 UNK        -0.4546 
     35 C          27.2772   -5.3260   -2.7476 C.2       1 UNK         0.5154 
     36 O          26.1597   -5.8468   -2.7268 O.2       1 UNK        -0.5181 
     37 C          28.6202    3.5934   -4.8596 C.2       5 UNK         0.5014 
     38 O          27.7804    4.4913   -4.7615 O.2       5 UNK        -0.5248 
     39 N          29.6238    3.5929   -5.7475 N.am      6 UNK        -0.4434 
     40 CA         29.9585    4.5919   -6.7748 C.3       6 UNK         0.0363 
     41 CB         30.3225    5.9454   -6.1345 C.3       6 UNK        -0.1936 
     42 C          28.9113    4.7791   -7.8921 C.2       6 UNK         0.5081 
     43 O          29.2970    5.0424   -9.0313 O.2       6 UNK        -0.5248 
     44 N          27.6200    4.6601   -7.5624 N.am      7 UNK        -0.4718 
     45 CA         26.4831    4.8171   -8.4700 C.3       7 UNK         0.0273 
     46 CB         25.1875    4.8835   -7.6468 C.3       7 UNK        -0.1935 
     47 C          26.3902    3.7180   -9.5410 C.2       7 UNK         0.5018 
     48 O          25.9176    4.0025  -10.6427 O.2       7 UNK        -0.5186 
     49 N          26.8435    2.5014   -9.2142 N.am      8 UNK        -0.4240 
     50 CA         26.9719    1.3880  -10.1489 C.3       8 UNK         0.0235 
     51 CB         26.2717    0.1575   -9.5594 C.3       8 UNK        -0.2000 
     52 C          28.4632    1.1099  -10.3519 C.2       8 UNK         0.4941 
     53 O          29.2016    1.0373   -9.3687 O.2       8 UNK        -0.5273 
     54 N          28.8772    0.9233  -11.6131 N.am      9 UNK        -0.4262 
     55 CA         30.2766    0.7518  -12.0295 C.3       9 UNK         0.0264 
     56 CB         30.3417    0.6490  -13.5621 C.3       9 UNK        -0.1955 
     57 C          31.0087   -0.4379  -11.3813 C.2       9 UNK         0.5031 
     58 O          32.2256   -0.3697  -11.2040 O.2       9 UNK        -0.5390 
     59 N          30.2594   -1.4856  -11.0110 N.am      10 UNK        -0.4204 
     60 CA         30.7553   -2.6626  -10.2927 C.3       10 UNK         0.0237 
     61 CB         29.6647   -3.7464  -10.2906 C.3       10 UNK        -0.1985 
     62 C          31.2322   -2.3721   -8.8552 C.2       10 UNK         0.4970 
     63 O          32.0215   -3.1583   -8.3303 O.2       10 UNK        -0.4914 
     64 N          30.7668   -1.2678   -8.2567 N.am      11 UNK        -0.4285 
     65 CA         31.1317   -0.8082   -6.9099 C.3       11 UNK         0.1007 
     66 C          31.5063    0.7014   -6.8911 C.2       11 UNK         0.5703 
     67 N          32.0067    1.2626   -7.9856 N.am      11 UNK        -0.7361 
     68 O          31.3794    1.3742   -5.8703 O.2       11 UNK        -0.4986 
     69 C69        30.0654   -1.2203   -5.8510 C.3       12 UNK        -0.0947 
     70 S70        30.3115   -2.9230   -5.2395 S.3       12 UNK        -0.2240 
     71 C71        31.7311   -2.7278   -4.1065 C.3       12 UNK         0.0194 
     72 H72        25.1969   -1.1866   -1.9372 H         1 UNK         0.0906 
     73 H73        23.7343   -2.1629   -1.7941 H         1 UNK         0.0906 
     74 H74        24.4426   -1.4164   -0.3582 H         1 UNK         0.0906 
     75 H75        26.9488   -2.4320   -2.2604 H         1 UNK         0.3140 
     76 H76        28.5861   -3.8180   -2.0318 H         1 UNK         0.1085 
     77 H77        28.7968   -5.7313   -0.4637 H         1 UNK         0.0836 
     78 H78        27.1529   -5.5290    0.0549 H         1 UNK         0.0836 
     79 H79        30.8406   -3.3543    1.5885 H         1 UNK         0.0731 
     80 H80        30.7679   -4.6792    0.4562 H         1 UNK         0.0731 
     81 H81        31.2303   -4.2068   -1.8695 H         1 UNK         0.1312 
     82 H82        31.3181   -0.1551   -3.2811 H         1 UNK         0.1406 
     83 H83        30.0860   -0.9954    0.7333 H         1 UNK         0.1631 
     84 H84        31.0283    1.6548   -1.6946 H         1 UNK         0.0717 
     85 H85        30.6843    1.3435   -0.0112 H         1 UNK         0.0717 
     86 H86        27.9082    3.5092   -2.1709 H         1 UNK         0.0934 
     87 H87        29.6329    3.3558   -2.3262 H         1 UNK         0.0934 
     88 H88        29.3182    1.6728   -4.1784 H         1 UNK         0.0739 
     89 H89        26.6843    1.5357   -3.3179 H         1 UNK         0.3093 
     90 H90        25.1696    0.2515   -4.2234 H         1 UNK         0.0818 
     91 H91        23.3932    0.8185   -5.8754 H         1 UNK         0.0819 
     92 H92        24.2868    2.2584   -5.4191 H         1 UNK         0.0819 
     93 H93        24.5990    1.4932   -6.9724 H         1 UNK         0.0819 
     94 H94        25.0437   -0.9331   -6.8350 H         1 UNK         0.3041 
     95 H95        25.1530   -3.5771   -6.3984 H         1 UNK         0.0784 
     96 H96        26.8031   -3.8484   -8.3655 H         1 UNK         0.0793 
     97 H97        25.9189   -2.3437   -8.3668 H         1 UNK         0.0793 
     98 H98        27.6004   -2.3720   -7.8264 H         1 UNK         0.0793 
     99 H99        27.6339   -3.7802   -5.0339 H         1 UNK         0.3024 
    100 H100       27.3537   -7.2355   -4.6700 H         1 UNK         0.1171 
    101 H101       29.7768   -5.8310   -5.9341 H         1 UNK         0.0786 
    102 H102       29.0051   -7.2914   -6.5310 H         1 UNK         0.0786 
    103 H103       29.8340   -7.3160   -4.9834 H         1 UNK         0.0786 
    104 H104       29.0971   -5.1417   -3.6478 H         1 UNK         0.2977 
    105 H105       30.2271    2.7706   -5.7613 H         1 UNK         0.3127 
    106 H106       30.8562    4.2094   -7.2629 H         1 UNK         0.0770 
    107 H107       29.4689    6.4019   -5.6325 H         1 UNK         0.0814 
    108 H108       30.6679    6.6520   -6.8904 H         1 UNK         0.0814 
    109 H109       31.1235    5.8359   -5.4035 H         1 UNK         0.0814 
    110 H110       27.4131    4.4961   -6.5802 H         1 UNK         0.2983 
    111 H111       26.6056    5.7683   -8.9926 H         1 UNK         0.0947 
    112 H112       24.3175    5.0059   -8.2935 H         1 UNK         0.0806 
    113 H113       25.1993    5.7273   -6.9566 H         1 UNK         0.0806 
    114 H114       25.0368    3.9761   -7.0626 H         1 UNK         0.0806 
    115 H115       27.2590    2.3517   -8.2999 H         1 UNK         0.3000 
    116 H116       26.5119    1.6247  -11.1107 H         1 UNK         0.0850 
    117 H117       26.7096   -0.1180   -8.5999 H         1 UNK         0.0810 
    118 H118       25.2093    0.3435   -9.4027 H         1 UNK         0.0810 
    119 H119       26.3600   -0.7015  -10.2256 H         1 UNK         0.0810 
    120 H120       28.1957    0.9803  -12.3569 H         1 UNK         0.3040 
    121 H121       30.8115    1.6545  -11.7268 H         1 UNK         0.0766 
    122 H122       29.9342    1.5406  -14.0388 H         1 UNK         0.0812 
    123 H123       29.7888   -0.2148  -13.9334 H         1 UNK         0.0812 
    124 H124       31.3731    0.5463  -13.9033 H         1 UNK         0.0812 
    125 H125       29.2686   -1.4484  -11.1998 H         1 UNK         0.3205 
    126 H126       31.6163   -3.0485  -10.8426 H         1 UNK         0.0754 
    127 H127       29.9980   -4.6382   -9.7575 H         1 UNK         0.0769 
    128 H128       29.4092   -4.0543  -11.3047 H         1 UNK         0.0769 
    129 H129       28.7533   -3.3987   -9.8056 H         1 UNK         0.0769 
    130 H130       30.1596   -0.6322   -8.7664 H         1 UNK         0.2981 
    131 H131       32.0774   -1.2758   -6.6359 H         1 UNK         0.0541 
    132 H132       32.2670    2.2343   -7.9691 H         1 UNK         0.3459 
    133 H133       32.1172    0.7260   -8.8322 H         1 UNK         0.3459 
    134 H134       29.0651   -1.1463   -6.2789 H         1 UNK         0.0612 
    135 H135       30.0425   -0.5559   -4.9916 H         1 UNK         0.0612 
    136 H136       32.4698   -2.0487   -4.5322 H         1 UNK         0.0624 
    137 H137       32.2311   -3.6931   -4.0162 H         1 UNK         0.0624 
@<TRIPOS>BOND
     1    1    2 1    
     2    1   72 1    
     3    1   73 1    
     4    1   74 1    
     5    2    3 2    
     6    2    4 am   BACKBONE|DICT|INTERRES
     7    4    5 1    
     8    4   75 1    
     9    5    6 1    
    10    5   35 1    
    11    5   76 1    
    12    6    7 1    
    13    6   77 1    
    14    6   78 1    
    15    7    8 1    
    16    8    9 1    
    17    8   79 1    
    18    8   80 1    
    19    9   10 ar   
    20    9   14 ar   
    21   10   11 ar   
    22   10   81 1    
    23   11   12 ar   
    24   11   71 1    
    25   12   13 ar   
    26   12   82 1    
    27   13   14 ar   
    28   13   15 1    
    29   14   83 1    
    30   15   16 1    
    31   15   84 1    
    32   15   85 1    
    33   16   17 1    
    34   17   18 1    
    35   17   86 1    
    36   17   87 1    
    37   18   19 1    
    38   18   37 1    
    39   18   88 1    
    40   19   20 am   BACKBONE|DICT|INTERRES
    41   19   89 1    
    42   20   21 2    
    43   20   22 1    
    44   22   23 1    
    45   22   24 1    
    46   22   90 1    
    47   23   91 1    
    48   23   92 1    
    49   23   93 1    
    50   24   25 am   BACKBONE|DICT|INTERRES
    51   24   94 1    
    52   25   26 2    
    53   25   27 1    
    54   27   28 1    
    55   27   29 1    
    56   27   95 1    
    57   28   96 1    
    58   28   97 1    
    59   28   98 1    
    60   29   30 am   BACKBONE|DICT|INTERRES
    61   29   99 1    
    62   30   31 2    
    63   30   32 1    
    64   32   33 1    
    65   32   34 1    
    66   32  100 1    
    67   33  101 1    
    68   33  102 1    
    69   33  103 1    
    70   34   35 am   BACKBONE|DICT|INTERRES
    71   34  104 1    
    72   35   36 2    
    73   37   38 2    
    74   37   39 am   BACKBONE|DICT|INTERRES
    75   39   40 1    
    76   39  105 1    
    77   40   41 1    
    78   40   42 1    
    79   40  106 1    
    80   41  107 1    
    81   41  108 1    
    82   41  109 1    
    83   42   43 2    
    84   42   44 am   BACKBONE|DICT|INTERRES
    85   44   45 1    
    86   44  110 1    
    87   45   46 1    
    88   45   47 1    
    89   45  111 1    
    90   46  112 1    
    91   46  113 1    
    92   46  114 1    
    93   47   48 2    
    94   47   49 am   BACKBONE|DICT|INTERRES
    95   49   50 1    
    96   49  115 1    
    97   50   51 1    
    98   50   52 1    
    99   50  116 1    
   100   51  117 1    
   101   51  118 1    
   102   51  119 1    
   103   52   53 2    
   104   52   54 am   BACKBONE|DICT|INTERRES
   105   54   55 1    
   106   54  120 1    
   107   55   56 1    
   108   55   57 1    
   109   55  121 1    
   110   56  122 1    
   111   56  123 1    
   112   56  124 1    
   113   57   58 2    
   114   57   59 am   BACKBONE|DICT|INTERRES
   115   59   60 1    
   116   59  125 1    
   117   60   61 1    
   118   60   62 1    
   119   60  126 1    
   120   61  127 1    
   121   61  128 1    
   122   61  129 1    
   123   62   63 2    
   124   62   64 am   BACKBONE|DICT|INTERRES
   125   64   65 1    
   126   64  130 1    
   127   65   66 1    
   128   65   69 1    
   129   65  131 1    
   130   66   67 am   BACKBONE|DICT|INTERRES
   131   66   68 2    
   132   67  132 1    
   133   67  133 1    
   134   69   70 1    
   135   69  134 1    
   136   69  135 1    
   137   70   71 1    
   138   71  136 1    
   139   71  137 1    
@<TRIPOS>SUBSTRUCTURE
     1 UNK         1 GROUP             0       ****    0 ROOT    
