@<TRIPOS>MOLECULE
3R137
137   139    1
SMALL
USER_CHARGES


@<TRIPOS>ATOM
      1 CA         28.5896   -4.6460   -4.1932 C.3       0 UNK        -0.2020 
      2 C          27.9929   -3.5528   -3.3226 C.2       0 UNK         0.4855 
      3 O          27.6525   -2.4817   -3.8308 O.2       0 UNK        -0.5197 
      4 N          27.8412   -3.8514   -2.0235 N.am      1 UNK        -0.4892 
      5 CA         27.4577   -2.9589   -0.9138 C.3       1 UNK         0.0835 
      6 C6         28.6533   -2.1160   -0.3963 C.3       12 UNK        -0.0855 
      7 S7         30.0252   -3.1759    0.1908 S.3       12 UNK        -0.2931 
      8 C8         31.4326   -2.0179    0.2438 C.3       12 UNK         0.0378 
      9 C9         31.7429   -1.4441   -1.1298 C.ar      12 UNK        -0.0802 
     10 C10        32.3456   -2.2376   -2.1098 C.ar      12 UNK        -0.0944 
     11 C11        32.5621   -1.7317   -3.3948 C.ar      12 UNK        -0.0787 
     12 C12        32.1661   -0.4254   -3.6986 C.ar      12 UNK        -0.0862 
     13 C13        31.5712    0.3800   -2.7220 C.ar      12 UNK        -0.0733 
     14 C14        31.3879   -0.1278   -1.4325 C.ar      12 UNK        -0.0832 
     15 C15        31.0904    1.7829   -3.0744 C.3       12 UNK         0.0240 
     16 S16        29.3684    2.1064   -2.5516 S.3       12 UNK        -0.2522 
     17 C17        28.4567    0.7349   -3.3410 C.3       12 UNK        -0.0967 
     18 CA         28.1065    1.0266   -4.8175 C.3       5 UNK         0.0660 
     19 N          27.9783   -0.2086   -5.5940 N.am      5 UNK        -0.4015 
     20 C          27.9427   -0.2440   -6.9334 C.2       4 UNK         0.4946 
     21 O          28.0012    0.7582   -7.6421 O.2       4 UNK        -0.5353 
     22 CA         27.7408   -1.6130   -7.6014 C.3       4 UNK         0.0277 
     23 CB         29.0810   -2.3548   -7.7177 C.3       4 UNK        -0.1981 
     24 N          26.7559   -2.4575   -6.9187 N.am      4 UNK        -0.4209 
     25 C          25.4862   -2.1072   -6.6673 C.2       3 UNK         0.4942 
     26 O          25.0018   -1.0202   -6.9814 O.2       3 UNK        -0.5208 
     27 CA         24.6213   -3.1051   -5.8934 C.3       3 UNK         0.0250 
     28 CB         25.0412   -4.5772   -6.0799 C.3       3 UNK        -0.1990 
     29 N          24.6884   -2.7494   -4.4784 N.am      3 UNK        -0.4232 
     30 C          23.6316   -2.5000   -3.6936 C.2       2 UNK         0.4993 
     31 O          22.4640   -2.5560   -4.0822 O.2       2 UNK        -0.5286 
     32 CA         23.9257   -2.1444   -2.2250 C.3       2 UNK         0.0209 
     33 CB         22.7889   -2.5677   -1.2750 C.3       2 UNK        -0.1931 
     34 N          25.1786   -2.7603   -1.7816 N.am      2 UNK        -0.4546 
     35 C          26.1962   -2.1124   -1.2020 C.2       1 UNK         0.5154 
     36 O          26.1678   -0.9133   -0.9193 O.2       1 UNK        -0.5181 
     37 C          26.8692    1.9401   -4.9491 C.2       5 UNK         0.5014 
     38 O          27.0262    3.1587   -5.0301 O.2       5 UNK        -0.5248 
     39 N          25.6677    1.3455   -5.0195 N.am      6 UNK        -0.4434 
     40 CA         24.4086    2.0623   -5.2484 C.3       6 UNK         0.0363 
     41 CB         23.2179    1.1493   -4.9141 C.3       6 UNK        -0.1936 
     42 C          24.3022    2.6108   -6.6827 C.2       6 UNK         0.5081 
     43 O          23.7597    3.6982   -6.8781 O.2       6 UNK        -0.5248 
     44 N          24.8588    1.8716   -7.6516 N.am      7 UNK        -0.4718 
     45 CA         25.0091    2.2873   -9.0494 C.3       7 UNK         0.0273 
     46 CB         25.2319    1.0339   -9.9128 C.3       7 UNK        -0.1935 
     47 C          26.1469    3.3059   -9.2749 C.2       7 UNK         0.5018 
     48 O          26.2412    3.8518  -10.3751 O.2       7 UNK        -0.5186 
     49 N          26.9872    3.5294   -8.2519 N.am      8 UNK        -0.4240 
     50 CA         28.2027    4.3528   -8.2405 C.3       8 UNK         0.0235 
     51 CB         27.8664    5.8451   -8.4483 C.3       8 UNK        -0.2000 
     52 C          29.2834    3.8284   -9.2083 C.2       8 UNK         0.4941 
     53 O          29.9402    4.6182   -9.8904 O.2       8 UNK        -0.5273 
     54 N          29.4423    2.5015   -9.2472 N.am      9 UNK        -0.4262 
     55 CA         30.4036    1.7676  -10.0639 C.3       9 UNK         0.0264 
     56 CB         29.6194    0.7762  -10.9427 C.3       9 UNK        -0.1955 
     57 C          31.3931    1.0133   -9.1624 C.2       9 UNK         0.5031 
     58 O          31.1662    0.8762   -7.9572 O.2       9 UNK        -0.5390 
     59 N          32.4714    0.5100   -9.7736 N.am      10 UNK        -0.4204 
     60 CA         33.4127   -0.4150   -9.1414 C.3       10 UNK         0.0237 
     61 CB         34.7462   -0.3774   -9.9065 C.3       10 UNK        -0.1985 
     62 C          32.8371   -1.8410   -9.1306 C.2       10 UNK         0.4970 
     63 O          32.0754   -2.1997  -10.0322 O.2       10 UNK        -0.4914 
     64 N          33.2403   -2.6345   -8.1327 N.am      11 UNK        -0.4285 
     65 CA         32.8329   -4.0417   -7.9741 C.3       11 UNK         0.1007 
     66 C          33.5268   -5.0315   -8.9566 C.2       11 UNK         0.5703 
     67 N          34.5553   -4.6313   -9.6956 N.am      11 UNK        -0.7361 
     68 O          33.1168   -6.1856   -9.0556 O.2       11 UNK        -0.4986 
     69 C69        32.9835   -4.5209   -6.5064 C.3       12 UNK        -0.0947 
     70 S70        31.9476   -3.5692   -5.3473 S.3       12 UNK        -0.2240 
     71 C71        33.2044   -2.6054   -4.4588 C.3       12 UNK         0.0194 
     72 H72        29.5520   -4.9655   -3.7937 H         1 UNK         0.0906 
     73 H73        27.9285   -5.5108   -4.2352 H         1 UNK         0.0906 
     74 H74        28.7542   -4.2897   -5.2087 H         1 UNK         0.0906 
     75 H75        28.1268   -4.7726   -1.7205 H         1 UNK         0.3140 
     76 H76        27.1599   -3.6165   -0.0951 H         1 UNK         0.1085 
     77 H77        29.0016   -1.4566   -1.1905 H         1 UNK         0.0836 
     78 H78        28.3525   -1.4728    0.4329 H         1 UNK         0.0836 
     79 H79        32.3104   -2.5423    0.6240 H         1 UNK         0.0731 
     80 H80        31.2165   -1.2230    0.9596 H         1 UNK         0.0731 
     81 H81        32.6201   -3.2580   -1.8790 H         1 UNK         0.1312 
     82 H82        32.3069   -0.0438   -4.7012 H         1 UNK         0.1406 
     83 H83        30.9168    0.4882   -0.6783 H         1 UNK         0.1631 
     84 H84        31.1651    1.9576   -4.1489 H         1 UNK         0.0717 
     85 H85        31.7466    2.5114   -2.5968 H         1 UNK         0.0717 
     86 H86        29.0585   -0.1712   -3.2689 H         1 UNK         0.0934 
     87 H87        27.5603    0.5225   -2.7555 H         1 UNK         0.0934 
     88 H88        28.9453    1.5673   -5.2622 H         1 UNK         0.0739 
     89 H89        27.9058   -1.0760   -5.0661 H         1 UNK         0.3093 
     90 H90        27.3653   -1.4317   -8.6104 H         1 UNK         0.0818 
     91 H91        29.5114   -2.5633   -6.7386 H         1 UNK         0.0819 
     92 H92        28.9750   -3.2990   -8.2515 H         1 UNK         0.0819 
     93 H93        29.8083   -1.7542   -8.2661 H         1 UNK         0.0819 
     94 H94        27.0702   -3.3659   -6.6142 H         1 UNK         0.3041 
     95 H95        23.6042   -2.9934   -6.2752 H         1 UNK         0.0784 
     96 H96        25.0812   -4.8446   -7.1369 H         1 UNK         0.0793 
     97 H97        26.0151   -4.7930   -5.6427 H         1 UNK         0.0793 
     98 H98        24.3197   -5.2456   -5.6095 H         1 UNK         0.0793 
     99 H99        25.6202   -2.6255   -4.0939 H         1 UNK         0.3024 
    100 H100       24.0077   -1.0555   -2.1922 H         1 UNK         0.1171 
    101 H101       21.8505   -2.0786   -1.5397 H         1 UNK         0.0786 
    102 H102       23.0131   -2.2938   -0.2439 H         1 UNK         0.0786 
    103 H103       22.6184   -3.6444   -1.3067 H         1 UNK         0.0786 
    104 H104       25.2956   -3.7422   -1.9937 H         1 UNK         0.2977 
    105 H105       25.6236    0.3367   -5.0257 H         1 UNK         0.3127 
    106 H106       24.3781    2.9162   -4.5679 H         1 UNK         0.0770 
    107 H107       23.1881    0.2646   -5.5506 H         1 UNK         0.0814 
    108 H108       22.2740    1.6781   -5.0525 H         1 UNK         0.0814 
    109 H109       23.2512    0.8169   -3.8769 H         1 UNK         0.0814 
    110 H110       25.2179    0.9527   -7.4096 H         1 UNK         0.2983 
    111 H111       24.0800    2.7637   -9.3696 H         1 UNK         0.0947 
    112 H112       25.2764    1.2907  -10.9719 H         1 UNK         0.0806 
    113 H113       24.4226    0.3144   -9.7866 H         1 UNK         0.0806 
    114 H114       26.1671    0.5335   -9.6606 H         1 UNK         0.0806 
    115 H115       26.8252    2.9950   -7.4083 H         1 UNK         0.3000 
    116 H116       28.6231    4.2490   -7.2389 H         1 UNK         0.0850 
    117 H117       28.7501    6.4675   -8.3034 H         1 UNK         0.0810 
    118 H118       27.1124    6.1835   -7.7376 H         1 UNK         0.0810 
    119 H119       27.4933    6.0416   -9.4538 H         1 UNK         0.0810 
    120 H120       28.9021    1.9205   -8.6028 H         1 UNK         0.3040 
    121 H121       30.9679    2.4496  -10.7032 H         1 UNK         0.0766 
    122 H122       28.8997    1.2949  -11.5764 H         1 UNK         0.0812 
    123 H123       29.0693    0.0535  -10.3379 H         1 UNK         0.0812 
    124 H124       30.2829    0.2131  -11.5999 H         1 UNK         0.0812 
    125 H125       32.5625    0.6288  -10.7723 H         1 UNK         0.3205 
    126 H126       33.5904   -0.0948   -8.1120 H         1 UNK         0.0754 
    127 H127       35.4876   -1.0241   -9.4356 H         1 UNK         0.0769 
    128 H128       35.1640    0.6296   -9.9244 H         1 UNK         0.0769 
    129 H129       34.6308   -0.7107  -10.9390 H         1 UNK         0.0769 
    130 H130       33.8852   -2.2784   -7.4443 H         1 UNK         0.2981 
    131 H131       31.7698   -4.0971   -8.2177 H         1 UNK         0.0541 
    132 H132       34.8998   -3.6880   -9.6277 H         1 UNK         0.3459 
    133 H133       34.9895   -5.2836  -10.3295 H         1 UNK         0.3459 
    134 H134       32.6806   -5.5654   -6.4124 H         1 UNK         0.0612 
    135 H135       34.0284   -4.4808   -6.1937 H         1 UNK         0.0612 
    136 H136       33.7609   -1.9893   -5.1662 H         1 UNK         0.0624 
    137 H137       33.9253   -3.2836   -3.9996 H         1 UNK         0.0624 
@<TRIPOS>BOND
     1    1    2 1    
     2    1   72 1    
     3    1   73 1    
     4    1   74 1    
     5    2    3 2    
     6    2    4 am   BACKBONE|DICT|INTERRES
     7    4    5 1    
     8    4   75 1    
     9    5    6 1    
    10    5   35 1    
    11    5   76 1    
    12    6    7 1    
    13    6   77 1    
    14    6   78 1    
    15    7    8 1    
    16    8    9 1    
    17    8   79 1    
    18    8   80 1    
    19    9   10 ar   
    20    9   14 ar   
    21   10   11 ar   
    22   10   81 1    
    23   11   12 ar   
    24   11   71 1    
    25   12   13 ar   
    26   12   82 1    
    27   13   14 ar   
    28   13   15 1    
    29   14   83 1    
    30   15   16 1    
    31   15   84 1    
    32   15   85 1    
    33   16   17 1    
    34   17   18 1    
    35   17   86 1    
    36   17   87 1    
    37   18   19 1    
    38   18   37 1    
    39   18   88 1    
    40   19   20 am   BACKBONE|DICT|INTERRES
    41   19   89 1    
    42   20   21 2    
    43   20   22 1    
    44   22   23 1    
    45   22   24 1    
    46   22   90 1    
    47   23   91 1    
    48   23   92 1    
    49   23   93 1    
    50   24   25 am   BACKBONE|DICT|INTERRES
    51   24   94 1    
    52   25   26 2    
    53   25   27 1    
    54   27   28 1    
    55   27   29 1    
    56   27   95 1    
    57   28   96 1    
    58   28   97 1    
    59   28   98 1    
    60   29   30 am   BACKBONE|DICT|INTERRES
    61   29   99 1    
    62   30   31 2    
    63   30   32 1    
    64   32   33 1    
    65   32   34 1    
    66   32  100 1    
    67   33  101 1    
    68   33  102 1    
    69   33  103 1    
    70   34   35 am   BACKBONE|DICT|INTERRES
    71   34  104 1    
    72   35   36 2    
    73   37   38 2    
    74   37   39 am   BACKBONE|DICT|INTERRES
    75   39   40 1    
    76   39  105 1    
    77   40   41 1    
    78   40   42 1    
    79   40  106 1    
    80   41  107 1    
    81   41  108 1    
    82   41  109 1    
    83   42   43 2    
    84   42   44 am   BACKBONE|DICT|INTERRES
    85   44   45 1    
    86   44  110 1    
    87   45   46 1    
    88   45   47 1    
    89   45  111 1    
    90   46  112 1    
    91   46  113 1    
    92   46  114 1    
    93   47   48 2    
    94   47   49 am   BACKBONE|DICT|INTERRES
    95   49   50 1    
    96   49  115 1    
    97   50   51 1    
    98   50   52 1    
    99   50  116 1    
   100   51  117 1    
   101   51  118 1    
   102   51  119 1    
   103   52   53 2    
   104   52   54 am   BACKBONE|DICT|INTERRES
   105   54   55 1    
   106   54  120 1    
   107   55   56 1    
   108   55   57 1    
   109   55  121 1    
   110   56  122 1    
   111   56  123 1    
   112   56  124 1    
   113   57   58 2    
   114   57   59 am   BACKBONE|DICT|INTERRES
   115   59   60 1    
   116   59  125 1    
   117   60   61 1    
   118   60   62 1    
   119   60  126 1    
   120   61  127 1    
   121   61  128 1    
   122   61  129 1    
   123   62   63 2    
   124   62   64 am   BACKBONE|DICT|INTERRES
   125   64   65 1    
   126   64  130 1    
   127   65   66 1    
   128   65   69 1    
   129   65  131 1    
   130   66   67 am   BACKBONE|DICT|INTERRES
   131   66   68 2    
   132   67  132 1    
   133   67  133 1    
   134   69   70 1    
   135   69  134 1    
   136   69  135 1    
   137   70   71 1    
   138   71  136 1    
   139   71  137 1    
@<TRIPOS>SUBSTRUCTURE
     1 UNK         1 GROUP             0       ****    0 ROOT    
