@<TRIPOS>MOLECULE
3R137
137   139    1
SMALL
USER_CHARGES


@<TRIPOS>ATOM
      1 CA         30.2883   -6.0850   -4.4288 C.3       0 UNK        -0.2020 
      2 C          29.0391   -6.1437   -3.5615 C.2       0 UNK         0.4855 
      3 O          28.4797   -7.2229   -3.3666 O.2       0 UNK        -0.5197 
      4 N          28.5937   -4.9945   -3.0452 N.am      1 UNK        -0.4892 
      5 CA         27.3830   -4.8330   -2.2453 C.3       1 UNK         0.0835 
      6 C6         27.5855   -5.2613   -0.7634 C.3       12 UNK        -0.0855 
      7 S7         28.3970   -4.0643    0.3555 S.3       12 UNK        -0.2931 
      8 C8         30.1501   -4.1412   -0.1503 C.3       12 UNK         0.0378 
      9 C9         30.5535   -2.9668   -1.0381 C.ar      12 UNK        -0.0802 
     10 C10        31.2595   -3.1795   -2.2262 C.ar      12 UNK        -0.0944 
     11 C11        31.6522   -2.1058   -3.0344 C.ar      12 UNK        -0.0787 
     12 C12        31.3265   -0.8020   -2.6339 C.ar      12 UNK        -0.0862 
     13 C13        30.6338   -0.5711   -1.4405 C.ar      12 UNK        -0.0733 
     14 C14        30.2580   -1.6577   -0.6486 C.ar      12 UNK        -0.0832 
     15 C15        30.2907    0.8421   -0.9757 C.3       12 UNK         0.0240 
     16 S16        29.5988    1.9206   -2.2745 S.3       12 UNK        -0.2522 
     17 C17        28.2559    0.9048   -2.9796 C.3       12 UNK        -0.0967 
     18 CA         28.3524    0.8661   -4.5277 C.3       5 UNK         0.0660 
     19 N          27.9813   -0.4403   -5.0703 N.am      5 UNK        -0.4015 
     20 C          28.2104   -0.8541   -6.3253 C.2       4 UNK         0.4946 
     21 O          28.8154   -0.2036   -7.1786 O.2       4 UNK        -0.5353 
     22 CA         27.6742   -2.2443   -6.6915 C.3       4 UNK         0.0277 
     23 CB         28.6750   -3.3294   -6.2650 C.3       4 UNK        -0.1981 
     24 N          26.3733   -2.4971   -6.0708 N.am      4 UNK        -0.4209 
     25 C          25.2121   -2.0119   -6.5346 C.2       3 UNK         0.4942 
     26 O          25.1031   -1.3975   -7.5949 O.2       3 UNK        -0.5208 
     27 CA         23.9565   -2.2397   -5.6720 C.3       3 UNK         0.0250 
     28 CB         23.1915   -3.4824   -6.1551 C.3       3 UNK        -0.1990 
     29 N          24.2415   -2.3737   -4.2400 N.am      3 UNK        -0.4232 
     30 C          24.7057   -1.3881   -3.4582 C.2       2 UNK         0.4993 
     31 O          24.9299   -0.2457   -3.8556 O.2       2 UNK        -0.5286 
     32 CA         25.0468   -1.7647   -2.0059 C.3       2 UNK         0.0209 
     33 CB         23.7920   -1.7122   -1.1203 C.3       2 UNK        -0.1931 
     34 N          25.6883   -3.0809   -1.8826 N.am      2 UNK        -0.4546 
     35 C          26.8574   -3.3993   -2.4557 C.2       1 UNK         0.5154 
     36 O          27.4914   -2.6126   -3.1673 O.2       1 UNK        -0.5181 
     37 C          27.5439    2.0187   -5.1548 C.2       5 UNK         0.5014 
     38 O          28.1100    3.0870   -5.3916 O.2       5 UNK        -0.5248 
     39 N          26.2437    1.7906   -5.4017 N.am      6 UNK        -0.4434 
     40 CA         25.2971    2.7279   -6.0157 C.3       6 UNK         0.0363 
     41 CB         23.9421    2.0263   -6.2062 C.3       6 UNK        -0.1936 
     42 C          25.8174    3.2840   -7.3515 C.2       6 UNK         0.5081 
     43 O          25.9620    2.5257   -8.3105 O.2       6 UNK        -0.5248 
     44 N          26.1630    4.5805   -7.3583 N.am      7 UNK        -0.4718 
     45 CA         26.8125    5.3206   -8.4532 C.3       7 UNK         0.0273 
     46 CB         25.8367    5.4908   -9.6373 C.3       7 UNK        -0.1935 
     47 C          28.1704    4.7290   -8.8986 C.2       7 UNK         0.5018 
     48 O          28.6083    4.9983  -10.0183 O.2       7 UNK        -0.5186 
     49 N          28.7965    3.9197   -8.0278 N.am      8 UNK        -0.4240 
     50 CA         29.9946    3.1040   -8.2516 C.3       8 UNK         0.0235 
     51 CB         31.2336    4.0065   -8.4252 C.3       8 UNK        -0.2000 
     52 C          29.8392    2.0710   -9.3894 C.2       8 UNK         0.4941 
     53 O          30.8513    1.6562   -9.9612 O.2       8 UNK        -0.5273 
     54 N          28.5927    1.6587   -9.6834 N.am      9 UNK        -0.4262 
     55 CA         28.1840    0.8212  -10.8194 C.3       9 UNK         0.0264 
     56 CB         26.6778    0.5312  -10.7251 C.3       9 UNK        -0.1955 
     57 C          28.9618   -0.4917  -11.0072 C.2       9 UNK         0.5031 
     58 O          29.1277   -0.9228  -12.1500 O.2       9 UNK        -0.5390 
     59 N          29.4453   -1.0855   -9.9107 N.am      10 UNK        -0.4204 
     60 CA         30.3761   -2.2127   -9.9388 C.3       10 UNK         0.0237 
     61 CB         29.6124   -3.5521   -9.9169 C.3       10 UNK        -0.1985 
     62 C          31.4347   -2.0677   -8.8360 C.2       10 UNK         0.4970 
     63 O          31.8387   -3.0704   -8.2453 O.2       10 UNK        -0.4914 
     64 N          31.8743   -0.8274   -8.5857 N.am      11 UNK        -0.4285 
     65 CA         32.9450   -0.5041   -7.6317 C.3       11 UNK         0.1007 
     66 C          33.9080    0.6167   -8.1176 C.2       11 UNK         0.5703 
     67 N          33.6294    1.3236   -9.2070 N.am      11 UNK        -0.7361 
     68 O          34.9562    0.8299   -7.5138 O.2       11 UNK        -0.4986 
     69 C69        32.4007   -0.2631   -6.1920 C.3       12 UNK        -0.0947 
     70 S70        33.4727   -1.0331   -4.9299 S.3       12 UNK        -0.2240 
     71 C71        32.4257   -2.4026   -4.3219 C.3       12 UNK         0.0194 
     72 H72        30.6064   -5.0617   -4.6234 H         1 UNK         0.0906 
     73 H73        31.1087   -6.6108   -3.9412 H         1 UNK         0.0906 
     74 H74        30.1000   -6.5641   -5.3893 H         1 UNK         0.0906 
     75 H75        29.0470   -4.1112   -3.2475 H         1 UNK         0.3140 
     76 H76        26.6228   -5.4871   -2.6789 H         1 UNK         0.1085 
     77 H77        28.1251   -6.2084   -0.7130 H         1 UNK         0.0836 
     78 H78        26.6096   -5.4776   -0.3261 H         1 UNK         0.0836 
     79 H79        30.3521   -5.0947   -0.6405 H         1 UNK         0.0731 
     80 H80        30.7706   -4.1213    0.7465 H         1 UNK         0.0731 
     81 H81        31.5177   -4.1882   -2.5166 H         1 UNK         0.1312 
     82 H82        31.6108    0.0435   -3.2432 H         1 UNK         0.1406 
     83 H83        29.7284   -1.4875    0.2790 H         1 UNK         0.1631 
     84 H84        31.1937    1.3081   -0.5798 H         1 UNK         0.0717 
     85 H85        29.5755    0.8107   -0.1522 H         1 UNK         0.0717 
     86 H86        28.3184   -0.1035   -2.5704 H         1 UNK         0.0934 
     87 H87        27.2930    1.2859   -2.6321 H         1 UNK         0.0934 
     88 H88        29.3948    1.0137   -4.8206 H         1 UNK         0.0739 
     89 H89        27.5534   -1.0916   -4.4199 H         1 UNK         0.3093 
     90 H90        27.5569   -2.2856   -7.7762 H         1 UNK         0.0818 
     91 H91        28.8907   -3.2840   -5.2002 H         1 UNK         0.0819 
     92 H92        28.3089   -4.3294   -6.4978 H         1 UNK         0.0819 
     93 H93        29.6281   -3.2037   -6.7757 H         1 UNK         0.0819 
     94 H94        26.3801   -2.9671   -5.1769 H         1 UNK         0.3041 
     95 H95        23.3113   -1.3681   -5.8032 H         1 UNK         0.0784 
     96 H96        22.9405   -3.3982   -7.2136 H         1 UNK         0.0793 
     97 H97        23.7787   -4.3933   -6.0313 H         1 UNK         0.0793 
     98 H98        22.2547   -3.6085   -5.6119 H         1 UNK         0.0793 
     99 H99        24.0870   -3.2813   -3.8254 H         1 UNK         0.3024 
    100 H100       25.7550   -1.0181   -1.6388 H         1 UNK         0.1171 
    101 H101       24.0401   -1.8776   -0.0716 H         1 UNK         0.0786 
    102 H102       23.3092   -0.7359   -1.1862 H         1 UNK         0.0786 
    103 H103       23.0552   -2.4609   -1.4138 H         1 UNK         0.0786 
    104 H104       25.2206   -3.7641   -1.3040 H         1 UNK         0.2977 
    105 H105       25.8494    0.9078   -5.0868 H         1 UNK         0.3127 
    106 H106       25.1559    3.5547   -5.3171 H         1 UNK         0.0770 
    107 H107       24.0314    1.1499   -6.8498 H         1 UNK         0.0814 
    108 H108       23.2157    2.6969   -6.6668 H         1 UNK         0.0814 
    109 H109       23.5246    1.7007   -5.2533 H         1 UNK         0.0814 
    110 H110       26.0455    5.1018   -6.4995 H         1 UNK         0.2983 
    111 H111       27.0358    6.3144   -8.0619 H         1 UNK         0.0947 
    112 H112       26.2492    6.1588  -10.3944 H         1 UNK         0.0806 
    113 H113       24.8889    5.9200   -9.3128 H         1 UNK         0.0806 
    114 H114       25.6247    4.5390  -10.1257 H         1 UNK         0.0806 
    115 H115       28.3565    3.7703   -7.1213 H         1 UNK         0.3000 
    116 H116       30.1338    2.5208   -7.3399 H         1 UNK         0.0850 
    117 H117       32.1530    3.4249   -8.3831 H         1 UNK         0.0810 
    118 H118       31.2942    4.7540   -7.6344 H         1 UNK         0.0810 
    119 H119       31.2217    4.5293   -9.3821 H         1 UNK         0.0810 
    120 H120       27.8303    2.0215   -9.1190 H         1 UNK         0.3040 
    121 H121       28.3564    1.4172  -11.7174 H         1 UNK         0.0766 
    122 H122       26.0938    1.4497  -10.7831 H         1 UNK         0.0812 
    123 H123       26.4235    0.0312   -9.7889 H         1 UNK         0.0812 
    124 H124       26.3458   -0.1118  -11.5415 H         1 UNK         0.0812 
    125 H125       29.2571   -0.6670   -8.9998 H         1 UNK         0.3205 
    126 H126       30.9464   -2.1800  -10.8698 H         1 UNK         0.0754 
    127 H127       30.2994   -4.3983   -9.9562 H         1 UNK         0.0769 
    128 H128       28.9496   -3.6391  -10.7780 H         1 UNK         0.0769 
    129 H129       29.0058   -3.6653   -9.0217 H         1 UNK         0.0769 
    130 H130       31.5021   -0.0501   -9.1204 H         1 UNK         0.2981 
    131 H131       33.5951   -1.3811   -7.6058 H         1 UNK         0.0541 
    132 H132       34.2917    2.0212   -9.5059 H         1 UNK         0.3459 
    133 H133       32.7356    1.2569   -9.6797 H         1 UNK         0.3459 
    134 H134       32.3030    0.8020   -5.9742 H         1 UNK         0.0612 
    135 H135       31.3930   -0.6665   -6.0846 H         1 UNK         0.0612 
    136 H136       33.0857   -3.2538   -4.1488 H         1 UNK         0.0624 
    137 H137       31.7288   -2.7162   -5.1002 H         1 UNK         0.0624 
@<TRIPOS>BOND
     1    1    2 1    
     2    1   72 1    
     3    1   73 1    
     4    1   74 1    
     5    2    3 2    
     6    2    4 am   BACKBONE|DICT|INTERRES
     7    4    5 1    
     8    4   75 1    
     9    5    6 1    
    10    5   35 1    
    11    5   76 1    
    12    6    7 1    
    13    6   77 1    
    14    6   78 1    
    15    7    8 1    
    16    8    9 1    
    17    8   79 1    
    18    8   80 1    
    19    9   10 ar   
    20    9   14 ar   
    21   10   11 ar   
    22   10   81 1    
    23   11   12 ar   
    24   11   71 1    
    25   12   13 ar   
    26   12   82 1    
    27   13   14 ar   
    28   13   15 1    
    29   14   83 1    
    30   15   16 1    
    31   15   84 1    
    32   15   85 1    
    33   16   17 1    
    34   17   18 1    
    35   17   86 1    
    36   17   87 1    
    37   18   19 1    
    38   18   37 1    
    39   18   88 1    
    40   19   20 am   BACKBONE|DICT|INTERRES
    41   19   89 1    
    42   20   21 2    
    43   20   22 1    
    44   22   23 1    
    45   22   24 1    
    46   22   90 1    
    47   23   91 1    
    48   23   92 1    
    49   23   93 1    
    50   24   25 am   BACKBONE|DICT|INTERRES
    51   24   94 1    
    52   25   26 2    
    53   25   27 1    
    54   27   28 1    
    55   27   29 1    
    56   27   95 1    
    57   28   96 1    
    58   28   97 1    
    59   28   98 1    
    60   29   30 am   BACKBONE|DICT|INTERRES
    61   29   99 1    
    62   30   31 2    
    63   30   32 1    
    64   32   33 1    
    65   32   34 1    
    66   32  100 1    
    67   33  101 1    
    68   33  102 1    
    69   33  103 1    
    70   34   35 am   BACKBONE|DICT|INTERRES
    71   34  104 1    
    72   35   36 2    
    73   37   38 2    
    74   37   39 am   BACKBONE|DICT|INTERRES
    75   39   40 1    
    76   39  105 1    
    77   40   41 1    
    78   40   42 1    
    79   40  106 1    
    80   41  107 1    
    81   41  108 1    
    82   41  109 1    
    83   42   43 2    
    84   42   44 am   BACKBONE|DICT|INTERRES
    85   44   45 1    
    86   44  110 1    
    87   45   46 1    
    88   45   47 1    
    89   45  111 1    
    90   46  112 1    
    91   46  113 1    
    92   46  114 1    
    93   47   48 2    
    94   47   49 am   BACKBONE|DICT|INTERRES
    95   49   50 1    
    96   49  115 1    
    97   50   51 1    
    98   50   52 1    
    99   50  116 1    
   100   51  117 1    
   101   51  118 1    
   102   51  119 1    
   103   52   53 2    
   104   52   54 am   BACKBONE|DICT|INTERRES
   105   54   55 1    
   106   54  120 1    
   107   55   56 1    
   108   55   57 1    
   109   55  121 1    
   110   56  122 1    
   111   56  123 1    
   112   56  124 1    
   113   57   58 2    
   114   57   59 am   BACKBONE|DICT|INTERRES
   115   59   60 1    
   116   59  125 1    
   117   60   61 1    
   118   60   62 1    
   119   60  126 1    
   120   61  127 1    
   121   61  128 1    
   122   61  129 1    
   123   62   63 2    
   124   62   64 am   BACKBONE|DICT|INTERRES
   125   64   65 1    
   126   64  130 1    
   127   65   66 1    
   128   65   69 1    
   129   65  131 1    
   130   66   67 am   BACKBONE|DICT|INTERRES
   131   66   68 2    
   132   67  132 1    
   133   67  133 1    
   134   69   70 1    
   135   69  134 1    
   136   69  135 1    
   137   70   71 1    
   138   71  136 1    
   139   71  137 1    
@<TRIPOS>SUBSTRUCTURE
     1 UNK         1 GROUP             0       ****    0 ROOT    
