@<TRIPOS>MOLECULE
3R137
137   139    1
SMALL
USER_CHARGES


@<TRIPOS>ATOM
      1 CA         29.8624    0.2820    0.8730 C.3       0 UNK        -0.2020 
      2 C          29.0485   -0.9832    0.6435 C.2       0 UNK         0.4855 
      3 O          28.4266   -1.4836    1.5817 O.2       0 UNK        -0.5197 
      4 N          29.0565   -1.4964   -0.5950 N.am      1 UNK        -0.4892 
      5 CA         28.3306   -2.6908   -1.0561 C.3       1 UNK         0.0835 
      6 C6         28.8033   -4.0127   -0.3739 C.3       12 UNK        -0.0855 
      7 S7         30.6185   -4.2485   -0.3751 S.3       12 UNK        -0.2931 
      8 C8         30.8652   -5.5142   -1.6609 C.3       12 UNK         0.0378 
      9 C9         30.8483   -4.9041   -3.0537 C.ar      12 UNK        -0.0802 
     10 C10        32.0335   -4.4410   -3.6352 C.ar      12 UNK        -0.0944 
     11 C11        32.0297   -3.8764   -4.9154 C.ar      12 UNK        -0.0787 
     12 C12        30.8191   -3.7830   -5.6119 C.ar      12 UNK        -0.0862 
     13 C13        29.6248   -4.2112   -5.0274 C.ar      12 UNK        -0.0733 
     14 C14        29.6483   -4.7957   -3.7595 C.ar      12 UNK        -0.0832 
     15 C15        28.3009   -4.0070   -5.7449 C.3       12 UNK         0.0240 
     16 S16        27.3382   -2.6761   -4.9594 S.3       12 UNK        -0.2522 
     17 C17        28.3087   -1.1888   -5.3864 C.3       12 UNK        -0.0967 
     18 CA         27.6297   -0.3515   -6.4929 C.3       5 UNK         0.0660 
     19 N          26.2711    0.0487   -6.1177 N.am      5 UNK        -0.4015 
     20 C          25.3623    0.6356   -6.9041 C.2       4 UNK         0.4946 
     21 O          25.6195    1.0346   -8.0416 O.2       4 UNK        -0.5353 
     22 CA         23.9385    0.8001   -6.3234 C.3       4 UNK         0.0277 
     23 CB         22.9133    1.1882   -7.4055 C.3       4 UNK        -0.1981 
     24 N          23.4579   -0.3974   -5.6153 N.am      4 UNK        -0.4209 
     25 C          23.8848   -0.8110   -4.4140 C.2       3 UNK         0.4942 
     26 O          24.7198   -0.1879   -3.7527 O.2       3 UNK        -0.5208 
     27 CA         23.3423   -2.1490   -3.8885 C.3       3 UNK         0.0250 
     28 CB         23.5113   -3.2891   -4.9178 C.3       3 UNK        -0.1990 
     29 N          24.0437   -2.4618   -2.6429 N.am      3 UNK        -0.4232 
     30 C          23.7076   -3.3873   -1.7403 C.2       2 UNK         0.4993 
     31 O          22.7556   -4.1574   -1.8830 O.2       2 UNK        -0.5286 
     32 CA         24.5676   -3.4579   -0.4596 C.3       2 UNK         0.0209 
     33 CB         24.1842   -4.6460    0.4445 C.3       2 UNK        -0.1931 
     34 N          26.0124   -3.5175   -0.7174 N.am      2 UNK        -0.4546 
     35 C          26.7970   -2.4637   -0.9863 C.2       1 UNK         0.5154 
     36 O          26.3415   -1.3335   -1.1778 O.2       1 UNK        -0.5181 
     37 C          28.5181    0.8354   -6.9066 C.2       5 UNK         0.5014 
     38 O          29.3855    0.6621   -7.7631 O.2       5 UNK        -0.5248 
     39 N          28.2585    2.0231   -6.3434 N.am      6 UNK        -0.4434 
     40 CA         28.9143    3.2816   -6.7068 C.3       6 UNK         0.0363 
     41 CB         28.5604    4.3540   -5.6646 C.3       6 UNK        -0.1936 
     42 C          28.5729    3.7741   -8.1261 C.2       6 UNK         0.5081 
     43 O          29.3394    4.5619   -8.6792 O.2       6 UNK        -0.5248 
     44 N          27.4523    3.3075   -8.6930 N.am      7 UNK        -0.4718 
     45 CA         27.0494    3.5752  -10.0730 C.3       7 UNK         0.0273 
     46 CB         25.5533    3.9312  -10.1090 C.3       7 UNK        -0.1935 
     47 C          27.3381    2.3626  -10.9689 C.2       7 UNK         0.5018 
     48 O          27.8637    2.5377  -12.0682 O.2       7 UNK        -0.5186 
     49 N          26.9796    1.1614  -10.4927 N.am      8 UNK        -0.4240 
     50 CA         27.0592   -0.0896  -11.2481 C.3       8 UNK         0.0235 
     51 CB         26.2116   -1.1636  -10.5457 C.3       8 UNK        -0.2000 
     52 C          28.4927   -0.5959  -11.4733 C.2       8 UNK         0.4941 
     53 O          28.7906   -1.0676  -12.5716 O.2       8 UNK        -0.5273 
     54 N          29.3390   -0.5144  -10.4382 N.am      9 UNK        -0.4262 
     55 CA         30.7067   -1.0466  -10.4400 C.3       9 UNK         0.0264 
     56 CB         30.8014   -2.1366   -9.3591 C.3       9 UNK        -0.1955 
     57 C          31.7753    0.0352  -10.2051 C.2       9 UNK         0.5031 
     58 O          32.9540   -0.2392  -10.4329 O.2       9 UNK        -0.5390 
     59 N          31.3568    1.2234   -9.7435 N.am      10 UNK        -0.4204 
     60 CA         32.1789    2.3544   -9.2948 C.3       10 UNK         0.0237 
     61 CB         33.0546    2.9126  -10.4377 C.3       10 UNK        -0.1985 
     62 C          32.9747    2.0505   -8.0083 C.2       10 UNK         0.4970 
     63 O          34.0311    2.6469   -7.7909 O.2       10 UNK        -0.4914 
     64 N          32.4550    1.1398   -7.1749 N.am      11 UNK        -0.4285 
     65 CA         33.0439    0.7593   -5.8837 C.3       11 UNK         0.1007 
     66 C          32.7094    1.7992   -4.7835 C.2       11 UNK         0.5703 
     67 N          33.6613    2.1173   -3.9169 N.am      11 UNK        -0.7361 
     68 O          31.5857    2.2866   -4.6834 O.2       11 UNK        -0.4986 
     69 C69        32.6019   -0.6615   -5.4527 C.3       12 UNK        -0.0947 
     70 S70        33.1908   -1.9366   -6.6150 S.3       12 UNK        -0.2240 
     71 C71        33.3457   -3.3952   -5.5268 C.3       12 UNK         0.0194 
     72 H72        30.3682    0.6136   -0.0337 H         1 UNK         0.0906 
     73 H73        29.2134    1.0885    1.2133 H         1 UNK         0.0906 
     74 H74        30.6188    0.1072    1.6377 H         1 UNK         0.0906 
     75 H75        29.5756   -1.0154   -1.3154 H         1 UNK         0.3140 
     76 H76        28.5573   -2.7722   -2.1194 H         1 UNK         0.1085 
     77 H77        28.4782   -4.0360    0.6679 H         1 UNK         0.0836 
     78 H78        28.3422   -4.8789   -0.8498 H         1 UNK         0.0836 
     79 H79        31.8254   -6.0027   -1.4876 H         1 UNK         0.0731 
     80 H80        30.1112   -6.2977   -1.5713 H         1 UNK         0.0731 
     81 H81        32.9623   -4.5211   -3.0867 H         1 UNK         0.1312 
     82 H82        30.7987   -3.3527   -6.6023 H         1 UNK         0.1406 
     83 H83        28.7249   -5.1380   -3.3131 H         1 UNK         0.1631 
     84 H84        27.7226   -4.9314   -5.7126 H         1 UNK         0.0717 
     85 H85        28.4531   -3.7733   -6.8000 H         1 UNK         0.0717 
     86 H86        29.3100   -1.4844   -5.6979 H         1 UNK         0.0934 
     87 H87        28.4377   -0.5968   -4.4781 H         1 UNK         0.0934 
     88 H88        27.5362   -0.9861   -7.3759 H         1 UNK         0.0739 
     89 H89        25.9694   -0.2098   -5.1818 H         1 UNK         0.3093 
     90 H90        23.9882    1.6224   -5.6065 H         1 UNK         0.0818 
     91 H91        21.9217    1.3406   -6.9790 H         1 UNK         0.0819 
     92 H92        23.1960    2.1199   -7.8978 H         1 UNK         0.0819 
     93 H93        22.8347    0.4229   -8.1787 H         1 UNK         0.0819 
     94 H94        22.7937   -0.9721   -6.1140 H         1 UNK         0.3041 
     95 H95        22.2823   -2.0135   -3.6651 H         1 UNK         0.0784 
     96 H96        22.9582   -3.0879   -5.8354 H         1 UNK         0.0793 
     97 H97        24.5553   -3.4354   -5.1915 H         1 UNK         0.0793 
     98 H98        23.1372   -4.2375   -4.5331 H         1 UNK         0.0793 
     99 H99        24.8143   -1.8295   -2.4307 H         1 UNK         0.3024 
    100 H100       24.3555   -2.5435    0.0999 H         1 UNK         0.1171 
    101 H101       24.7592   -4.6424    1.3707 H         1 UNK         0.0786 
    102 H102       24.3522   -5.6022   -0.0527 H         1 UNK         0.0786 
    103 H103       23.1304   -4.6035    0.7235 H         1 UNK         0.0786 
    104 H104       26.4404   -4.4255   -0.6137 H         1 UNK         0.2977 
    105 H105       27.5285    2.0748   -5.6479 H         1 UNK         0.3127 
    106 H106       29.9932    3.1185   -6.6764 H         1 UNK         0.0770 
    107 H107       27.4876    4.5473   -5.6301 H         1 UNK         0.0814 
    108 H108       29.0552    5.2988   -5.8941 H         1 UNK         0.0814 
    109 H109       28.8845    4.0567   -4.6669 H         1 UNK         0.0814 
    110 H110       26.8825    2.6428   -8.1815 H         1 UNK         0.2983 
    111 H111       27.6049    4.4252  -10.4758 H         1 UNK         0.0947 
    112 H112       25.2262    4.1366  -11.1291 H         1 UNK         0.0806 
    113 H113       25.3463    4.8228   -9.5171 H         1 UNK         0.0806 
    114 H114       24.9307    3.1230   -9.7232 H         1 UNK         0.0806 
    115 H115       26.5100    1.1162   -9.5892 H         1 UNK         0.3000 
    116 H116       26.6197    0.0909  -12.2318 H         1 UNK         0.0850 
    117 H117       26.2180   -2.0973  -11.1098 H         1 UNK         0.0810 
    118 H118       25.1720   -0.8488  -10.4519 H         1 UNK         0.0810 
    119 H119       26.5832   -1.3844   -9.5452 H         1 UNK         0.0810 
    120 H120       29.0167   -0.1139   -9.5637 H         1 UNK         0.3040 
    121 H121       30.9391   -1.5066  -11.4026 H         1 UNK         0.0766 
    122 H122       31.7980   -2.5794   -9.3351 H         1 UNK         0.0812 
    123 H123       30.5976   -1.7340   -8.3666 H         1 UNK         0.0812 
    124 H124       30.0933   -2.9439   -9.5458 H         1 UNK         0.0812 
    125 H125       30.3739    1.2984   -9.5158 H         1 UNK         0.3205 
    126 H126       31.4776    3.1406   -9.0202 H         1 UNK         0.0754 
    127 H127       33.5239    3.8528  -10.1455 H         1 UNK         0.0769 
    128 H128       32.4613    3.1125  -11.3299 H         1 UNK         0.0769 
    129 H129       33.8546    2.2246  -10.7120 H         1 UNK         0.0769 
    130 H130       31.5530    0.7370   -7.3932 H         1 UNK         0.2981 
    131 H131       34.1294    0.7404   -6.0034 H         1 UNK         0.0541 
    132 H132       34.5837    1.7158   -3.9825 H         1 UNK         0.3459 
    133 H133       33.4544    2.7803   -3.1867 H         1 UNK         0.3459 
    134 H134       31.5158   -0.7250   -5.3793 H         1 UNK         0.0612 
    135 H135       32.9930   -0.8959   -4.4608 H         1 UNK         0.0612 
    136 H136       33.7742   -4.2131   -6.1069 H         1 UNK         0.0624 
    137 H137       34.0666   -3.1618   -4.7416 H         1 UNK         0.0624 
@<TRIPOS>BOND
     1    1    2 1    
     2    1   72 1    
     3    1   73 1    
     4    1   74 1    
     5    2    3 2    
     6    2    4 am   BACKBONE|DICT|INTERRES
     7    4    5 1    
     8    4   75 1    
     9    5    6 1    
    10    5   35 1    
    11    5   76 1    
    12    6    7 1    
    13    6   77 1    
    14    6   78 1    
    15    7    8 1    
    16    8    9 1    
    17    8   79 1    
    18    8   80 1    
    19    9   10 ar   
    20    9   14 ar   
    21   10   11 ar   
    22   10   81 1    
    23   11   12 ar   
    24   11   71 1    
    25   12   13 ar   
    26   12   82 1    
    27   13   14 ar   
    28   13   15 1    
    29   14   83 1    
    30   15   16 1    
    31   15   84 1    
    32   15   85 1    
    33   16   17 1    
    34   17   18 1    
    35   17   86 1    
    36   17   87 1    
    37   18   19 1    
    38   18   37 1    
    39   18   88 1    
    40   19   20 am   BACKBONE|DICT|INTERRES
    41   19   89 1    
    42   20   21 2    
    43   20   22 1    
    44   22   23 1    
    45   22   24 1    
    46   22   90 1    
    47   23   91 1    
    48   23   92 1    
    49   23   93 1    
    50   24   25 am   BACKBONE|DICT|INTERRES
    51   24   94 1    
    52   25   26 2    
    53   25   27 1    
    54   27   28 1    
    55   27   29 1    
    56   27   95 1    
    57   28   96 1    
    58   28   97 1    
    59   28   98 1    
    60   29   30 am   BACKBONE|DICT|INTERRES
    61   29   99 1    
    62   30   31 2    
    63   30   32 1    
    64   32   33 1    
    65   32   34 1    
    66   32  100 1    
    67   33  101 1    
    68   33  102 1    
    69   33  103 1    
    70   34   35 am   BACKBONE|DICT|INTERRES
    71   34  104 1    
    72   35   36 2    
    73   37   38 2    
    74   37   39 am   BACKBONE|DICT|INTERRES
    75   39   40 1    
    76   39  105 1    
    77   40   41 1    
    78   40   42 1    
    79   40  106 1    
    80   41  107 1    
    81   41  108 1    
    82   41  109 1    
    83   42   43 2    
    84   42   44 am   BACKBONE|DICT|INTERRES
    85   44   45 1    
    86   44  110 1    
    87   45   46 1    
    88   45   47 1    
    89   45  111 1    
    90   46  112 1    
    91   46  113 1    
    92   46  114 1    
    93   47   48 2    
    94   47   49 am   BACKBONE|DICT|INTERRES
    95   49   50 1    
    96   49  115 1    
    97   50   51 1    
    98   50   52 1    
    99   50  116 1    
   100   51  117 1    
   101   51  118 1    
   102   51  119 1    
   103   52   53 2    
   104   52   54 am   BACKBONE|DICT|INTERRES
   105   54   55 1    
   106   54  120 1    
   107   55   56 1    
   108   55   57 1    
   109   55  121 1    
   110   56  122 1    
   111   56  123 1    
   112   56  124 1    
   113   57   58 2    
   114   57   59 am   BACKBONE|DICT|INTERRES
   115   59   60 1    
   116   59  125 1    
   117   60   61 1    
   118   60   62 1    
   119   60  126 1    
   120   61  127 1    
   121   61  128 1    
   122   61  129 1    
   123   62   63 2    
   124   62   64 am   BACKBONE|DICT|INTERRES
   125   64   65 1    
   126   64  130 1    
   127   65   66 1    
   128   65   69 1    
   129   65  131 1    
   130   66   67 am   BACKBONE|DICT|INTERRES
   131   66   68 2    
   132   67  132 1    
   133   67  133 1    
   134   69   70 1    
   135   69  134 1    
   136   69  135 1    
   137   70   71 1    
   138   71  136 1    
   139   71  137 1    
@<TRIPOS>SUBSTRUCTURE
     1 UNK         1 GROUP             0       ****    0 ROOT    
