@<TRIPOS>MOLECULE
3R137
137   139    1
SMALL
USER_CHARGES


@<TRIPOS>ATOM
      1 CA         26.6822   -5.5092   -8.3151 C.3       0 UNK        -0.2020 
      2 C          26.5906   -5.6396   -6.8027 C.2       0 UNK         0.4855 
      3 O          25.8306   -6.4715   -6.3057 O.2       0 UNK        -0.5197 
      4 N          27.3559   -4.8270   -6.0616 N.am      1 UNK        -0.4892 
      5 CA         27.4507   -4.8438   -4.5954 C.3       1 UNK         0.0835 
      6 C6         28.8308   -4.3103   -4.1264 C.3       12 UNK        -0.0855 
      7 S7         29.3317   -4.9952   -2.5125 S.3       12 UNK        -0.2931 
      8 C8         31.0773   -4.4623   -2.4214 C.3       12 UNK         0.0378 
      9 C9         31.2612   -2.9490   -2.3200 C.ar      12 UNK        -0.0802 
     10 C10        32.2999   -2.3254   -3.0189 C.ar      12 UNK        -0.0944 
     11 C11        32.5006   -0.9443   -2.9190 C.ar      12 UNK        -0.0787 
     12 C12        31.6358   -0.1779   -2.1298 C.ar      12 UNK        -0.0862 
     13 C13        30.5865   -0.7864   -1.4344 C.ar      12 UNK        -0.0733 
     14 C14        30.4240   -2.1727   -1.5122 C.ar      12 UNK        -0.0832 
     15 C15        29.6188    0.0431   -0.5992 C.3       12 UNK         0.0240 
     16 S16        28.4186    0.9756   -1.6118 S.3       12 UNK        -0.2522 
     17 C17        27.6347   -0.3283   -2.6337 C.3       12 UNK        -0.0967 
     18 CA         27.2335    0.1058   -4.0662 C.3       5 UNK         0.0660 
     19 N          26.0686    0.9956   -4.0612 N.am      5 UNK        -0.4015 
     20 C          25.4617    1.5169   -5.1355 C.2       4 UNK         0.4946 
     21 O          25.9008    1.4447   -6.2848 O.2       4 UNK        -0.5353 
     22 CA         24.1015    2.1865   -4.8804 C.3       4 UNK         0.0277 
     23 CB         23.7257    3.1806   -5.9951 C.3       4 UNK        -0.1981 
     24 N          23.0584    1.1646   -4.7776 N.am      4 UNK        -0.4209 
     25 C          22.8899    0.3360   -3.7378 C.2       3 UNK         0.4942 
     26 O          23.5328    0.4242   -2.6887 O.2       3 UNK        -0.5208 
     27 CA         21.8306   -0.7748   -3.8688 C.3       3 UNK         0.0250 
     28 CB         21.0678   -0.7846   -5.2151 C.3       3 UNK        -0.1990 
     29 N          22.4029   -2.0958   -3.5785 N.am      3 UNK        -0.4232 
     30 C          23.3731   -2.7295   -4.2563 C.2       2 UNK         0.4993 
     31 O          23.9113   -2.2890   -5.2746 O.2       2 UNK        -0.5286 
     32 CA         23.7539   -4.1228   -3.7205 C.3       2 UNK         0.0209 
     33 CB         22.6626   -5.1505   -4.0683 C.3       2 UNK        -0.1931 
     34 N          25.0305   -4.6145   -4.2442 N.am      2 UNK        -0.4546 
     35 C          26.2418   -4.1471   -3.9200 C.2       1 UNK         0.5154 
     36 O          26.4138   -3.2253   -3.1220 O.2       1 UNK        -0.5181 
     37 C          28.4268    0.6212   -4.8978 C.2       5 UNK         0.5014 
     38 O          29.0137   -0.1511   -5.6559 O.2       5 UNK        -0.5248 
     39 N          28.7137    1.9266   -4.7855 N.am      6 UNK        -0.4434 
     40 CA         29.7795    2.6209   -5.5070 C.3       6 UNK         0.0363 
     41 CB         29.9319    4.0449   -4.9524 C.3       6 UNK        -0.1936 
     42 C          29.5786    2.6512   -7.0295 C.2       6 UNK         0.5081 
     43 O          30.5638    2.5970   -7.7656 O.2       6 UNK        -0.5248 
     44 N          28.3184    2.7257   -7.4753 N.am      7 UNK        -0.4718 
     45 CA         27.9468    2.6597   -8.8873 C.3       7 UNK         0.0273 
     46 CB         26.6138    3.3935   -9.1073 C.3       7 UNK        -0.1935 
     47 C          27.8554    1.2035   -9.3619 C.2       7 UNK         0.5018 
     48 O          28.3187    0.8999  -10.4605 O.2       7 UNK        -0.5186 
     49 N          27.2829    0.3312   -8.5194 N.am      8 UNK        -0.4240 
     50 CA         27.0872   -1.0951   -8.7839 C.3       8 UNK         0.0235 
     51 CB         26.2133   -1.7053   -7.6770 C.3       8 UNK        -0.2000 
     52 C          28.4069   -1.8688   -8.9374 C.2       8 UNK         0.4941 
     53 O          28.5455   -2.6370   -9.8892 O.2       8 UNK        -0.5273 
     54 N          29.3566   -1.6442   -8.0182 N.am      9 UNK        -0.4262 
     55 CA         30.7070   -2.2152   -8.0741 C.3       9 UNK         0.0264 
     56 CB         31.2694   -2.3172   -6.6473 C.3       9 UNK        -0.1955 
     57 C          31.6664   -1.4103   -8.9712 C.2       9 UNK         0.5031 
     58 O          32.7577   -1.9010   -9.2626 O.2       9 UNK        -0.5390 
     59 N          31.2619   -0.1940   -9.3697 N.am      10 UNK        -0.4204 
     60 CA         32.0023    0.7878  -10.1755 C.3       10 UNK         0.0237 
     61 CB         32.2795    0.2459  -11.5939 C.3       10 UNK        -0.1985 
     62 C          33.2700    1.3432   -9.4906 C.2       10 UNK         0.4970 
     63 O          34.1391    1.8895  -10.1727 O.2       10 UNK        -0.4914 
     64 N          33.3486    1.2150   -8.1611 N.am      11 UNK        -0.4285 
     65 CA         34.4077    1.7710   -7.3082 C.3       11 UNK         0.1007 
     66 C          34.2507    3.2887   -7.0012 C.2       11 UNK         0.5703 
     67 N          33.1053    3.9092   -7.2603 N.am      11 UNK        -0.7361 
     68 O          35.1978    3.9198   -6.5375 O.2       11 UNK        -0.4986 
     69 C69        34.6034    0.9251   -6.0203 C.3       12 UNK        -0.0947 
     70 S70        33.0615    0.6686   -5.0827 S.3       12 UNK        -0.2240 
     71 C71        33.6562   -0.2851   -3.6589 C.3       12 UNK         0.0194 
     72 H72        25.7450   -5.1265   -8.7183 H         1 UNK         0.0906 
     73 H73        27.4862   -4.8401   -8.6192 H         1 UNK         0.0906 
     74 H74        26.8715   -6.4840   -8.7637 H         1 UNK         0.0906 
     75 H75        27.9374   -4.1436   -6.5239 H         1 UNK         0.3140 
     76 H76        27.3943   -5.8917   -4.2900 H         1 UNK         0.1085 
     77 H77        29.5990   -4.6181   -4.8367 H         1 UNK         0.0836 
     78 H78        28.8607   -3.2190   -4.1016 H         1 UNK         0.0836 
     79 H79        31.5359   -4.9234   -1.5458 H         1 UNK         0.0731 
     80 H80        31.6075   -4.8566   -3.2899 H         1 UNK         0.0731 
     81 H81        32.9615   -2.9177   -3.6362 H         1 UNK         0.1312 
     82 H82        31.7724    0.8932   -2.0674 H         1 UNK         0.1406 
     83 H83        29.6216   -2.6466   -0.9630 H         1 UNK         0.1631 
     84 H84        29.0703   -0.5923    0.0979 H         1 UNK         0.0717 
     85 H85        30.1833    0.7474    0.0134 H         1 UNK         0.0717 
     86 H86        28.2936   -1.1901   -2.7149 H         1 UNK         0.0934 
     87 H87        26.7582   -0.6974   -2.0985 H         1 UNK         0.0934 
     88 H88        26.8867   -0.7972   -4.5718 H         1 UNK         0.0739 
     89 H89        25.5715    1.0565   -3.1809 H         1 UNK         0.3093 
     90 H90        24.1588    2.7383   -3.9395 H         1 UNK         0.0818 
     91 H91        22.7905    3.6934   -5.7702 H         1 UNK         0.0819 
     92 H92        24.4950    3.9455   -6.1101 H         1 UNK         0.0819 
     93 H93        23.6129    2.6862   -6.9609 H         1 UNK         0.0819 
     94 H94        22.5114    0.9970   -5.6094 H         1 UNK         0.3041 
     95 H95        21.0990   -0.5806   -3.0830 H         1 UNK         0.0784 
     96 H96        20.5392    0.1555   -5.3782 H         1 UNK         0.0793 
     97 H97        21.7291   -0.9490   -6.0668 H         1 UNK         0.0793 
     98 H98        20.3163   -1.5742   -5.2296 H         1 UNK         0.0793 
     99 H99        22.0426   -2.5397   -2.7452 H         1 UNK         0.3024 
    100 H100       23.8434   -4.0529   -2.6339 H         1 UNK         0.1171 
    101 H101       22.8990   -6.1336   -3.6606 H         1 UNK         0.0786 
    102 H102       21.6946   -4.8586   -3.6590 H         1 UNK         0.0786 
    103 H103       22.5413   -5.2562   -5.1474 H         1 UNK         0.0786 
    104 H104       24.9928   -5.3441   -4.9498 H         1 UNK         0.2977 
    105 H105       28.1724    2.4724   -4.1309 H         1 UNK         0.3127 
    106 H106       30.7045    2.0826   -5.3130 H         1 UNK         0.0770 
    107 H107       29.0242    4.6333   -5.0918 H         1 UNK         0.0814 
    108 H108       30.7437    4.5728   -5.4547 H         1 UNK         0.0814 
    109 H109       30.1673    4.0325   -3.8880 H         1 UNK         0.0814 
    110 H110       27.5601    2.6782   -6.8050 H         1 UNK         0.2983 
    111 H111       28.7118    3.1616   -9.4847 H         1 UNK         0.0947 
    112 H112       26.3313    3.3779  -10.1607 H         1 UNK         0.0806 
    113 H113       26.6833    4.4387   -8.8060 H         1 UNK         0.0806 
    114 H114       25.7985    2.9369   -8.5452 H         1 UNK         0.0806 
    115 H115       26.8936    0.6917   -7.6497 H         1 UNK         0.3000 
    116 H116       26.5433   -1.1769   -9.7273 H         1 UNK         0.0850 
    117 H117       26.7227   -1.7165   -6.7139 H         1 UNK         0.0810 
    118 H118       25.9392   -2.7321   -7.9147 H         1 UNK         0.0810 
    119 H119       25.2835   -1.1496   -7.5508 H         1 UNK         0.0810 
    120 H120       29.1600   -1.0221   -7.2323 H         1 UNK         0.3040 
    121 H121       30.6509   -3.2254   -8.4853 H         1 UNK         0.0766 
    122 H122       30.6448   -2.9471   -6.0184 H         1 UNK         0.0812 
    123 H123       31.3321   -1.3405   -6.1703 H         1 UNK         0.0812 
    124 H124       32.2719   -2.7470   -6.6444 H         1 UNK         0.0812 
    125 H125       30.3433    0.1056   -9.0733 H         1 UNK         0.3205 
    126 H126       31.3312    1.6415  -10.2819 H         1 UNK         0.0754 
    127 H127       32.6805    1.0268  -12.2411 H         1 UNK         0.0769 
    128 H128       31.3659   -0.1217  -12.0615 H         1 UNK         0.0769 
    129 H129       33.0036   -0.5692  -11.5828 H         1 UNK         0.0769 
    130 H130       32.5704    0.7996   -7.6711 H         1 UNK         0.2981 
    131 H131       35.3420    1.6933   -7.8674 H         1 UNK         0.0541 
    132 H132       33.0278    4.8950   -7.0715 H         1 UNK         0.3459 
    133 H133       32.2994    3.3914   -7.5980 H         1 UNK         0.3459 
    134 H134       35.3527    1.3730   -5.3649 H         1 UNK         0.0612 
    135 H135       34.9930   -0.0570   -6.2925 H         1 UNK         0.0612 
    136 H136       34.2010    0.3761   -2.9836 H         1 UNK         0.0624 
    137 H137       34.3683   -1.0377   -4.0010 H         1 UNK         0.0624 
@<TRIPOS>BOND
     1    1    2 1    
     2    1   72 1    
     3    1   73 1    
     4    1   74 1    
     5    2    3 2    
     6    2    4 am   BACKBONE|DICT|INTERRES
     7    4    5 1    
     8    4   75 1    
     9    5    6 1    
    10    5   35 1    
    11    5   76 1    
    12    6    7 1    
    13    6   77 1    
    14    6   78 1    
    15    7    8 1    
    16    8    9 1    
    17    8   79 1    
    18    8   80 1    
    19    9   10 ar   
    20    9   14 ar   
    21   10   11 ar   
    22   10   81 1    
    23   11   12 ar   
    24   11   71 1    
    25   12   13 ar   
    26   12   82 1    
    27   13   14 ar   
    28   13   15 1    
    29   14   83 1    
    30   15   16 1    
    31   15   84 1    
    32   15   85 1    
    33   16   17 1    
    34   17   18 1    
    35   17   86 1    
    36   17   87 1    
    37   18   19 1    
    38   18   37 1    
    39   18   88 1    
    40   19   20 am   BACKBONE|DICT|INTERRES
    41   19   89 1    
    42   20   21 2    
    43   20   22 1    
    44   22   23 1    
    45   22   24 1    
    46   22   90 1    
    47   23   91 1    
    48   23   92 1    
    49   23   93 1    
    50   24   25 am   BACKBONE|DICT|INTERRES
    51   24   94 1    
    52   25   26 2    
    53   25   27 1    
    54   27   28 1    
    55   27   29 1    
    56   27   95 1    
    57   28   96 1    
    58   28   97 1    
    59   28   98 1    
    60   29   30 am   BACKBONE|DICT|INTERRES
    61   29   99 1    
    62   30   31 2    
    63   30   32 1    
    64   32   33 1    
    65   32   34 1    
    66   32  100 1    
    67   33  101 1    
    68   33  102 1    
    69   33  103 1    
    70   34   35 am   BACKBONE|DICT|INTERRES
    71   34  104 1    
    72   35   36 2    
    73   37   38 2    
    74   37   39 am   BACKBONE|DICT|INTERRES
    75   39   40 1    
    76   39  105 1    
    77   40   41 1    
    78   40   42 1    
    79   40  106 1    
    80   41  107 1    
    81   41  108 1    
    82   41  109 1    
    83   42   43 2    
    84   42   44 am   BACKBONE|DICT|INTERRES
    85   44   45 1    
    86   44  110 1    
    87   45   46 1    
    88   45   47 1    
    89   45  111 1    
    90   46  112 1    
    91   46  113 1    
    92   46  114 1    
    93   47   48 2    
    94   47   49 am   BACKBONE|DICT|INTERRES
    95   49   50 1    
    96   49  115 1    
    97   50   51 1    
    98   50   52 1    
    99   50  116 1    
   100   51  117 1    
   101   51  118 1    
   102   51  119 1    
   103   52   53 2    
   104   52   54 am   BACKBONE|DICT|INTERRES
   105   54   55 1    
   106   54  120 1    
   107   55   56 1    
   108   55   57 1    
   109   55  121 1    
   110   56  122 1    
   111   56  123 1    
   112   56  124 1    
   113   57   58 2    
   114   57   59 am   BACKBONE|DICT|INTERRES
   115   59   60 1    
   116   59  125 1    
   117   60   61 1    
   118   60   62 1    
   119   60  126 1    
   120   61  127 1    
   121   61  128 1    
   122   61  129 1    
   123   62   63 2    
   124   62   64 am   BACKBONE|DICT|INTERRES
   125   64   65 1    
   126   64  130 1    
   127   65   66 1    
   128   65   69 1    
   129   65  131 1    
   130   66   67 am   BACKBONE|DICT|INTERRES
   131   66   68 2    
   132   67  132 1    
   133   67  133 1    
   134   69   70 1    
   135   69  134 1    
   136   69  135 1    
   137   70   71 1    
   138   71  136 1    
   139   71  137 1    
@<TRIPOS>SUBSTRUCTURE
     1 UNK         1 GROUP             0       ****    0 ROOT    
