@<TRIPOS>MOLECULE
3R137
137   139    1
SMALL
USER_CHARGES


@<TRIPOS>ATOM
      1 CA         26.8564   -5.3110    0.5231 C.3       0 UNK        -0.2020 
      2 C          28.1623   -4.9111   -0.1600 C.2       0 UNK         0.4855 
      3 O          28.9418   -5.7892   -0.5225 O.2       0 UNK        -0.5197 
      4 N          28.4592   -3.6171   -0.3582 N.am      1 UNK        -0.4892 
      5 CA         27.6578   -2.4297   -0.0073 C.3       1 UNK         0.0835 
      6 C6         28.4519   -1.0982   -0.1482 C.3       12 UNK        -0.0855 
      7 S7         30.1925   -1.1909    0.4186 S.3       12 UNK        -0.2931 
      8 C8         31.1246   -0.6186   -1.0472 C.3       12 UNK         0.0378 
      9 C9         31.4251   -1.7234   -2.0590 C.ar      12 UNK        -0.0802 
     10 C10        32.7451   -2.0037   -2.4315 C.ar      12 UNK        -0.0944 
     11 C11        33.0206   -2.9581   -3.4187 C.ar      12 UNK        -0.0787 
     12 C12        31.9679   -3.6602   -4.0136 C.ar      12 UNK        -0.0862 
     13 C13        30.6474   -3.3808   -3.6613 C.ar      12 UNK        -0.0733 
     14 C14        30.3875   -2.4161   -2.6866 C.ar      12 UNK        -0.0832 
     15 C15        29.4927   -4.0695   -4.3729 C.3       12 UNK         0.0240 
     16 S16        29.0324   -3.2002   -5.9079 S.3       12 UNK        -0.2522 
     17 C17        28.8258   -1.4859   -5.3168 C.3       12 UNK        -0.0967 
     18 CA         28.1605   -0.5687   -6.3583 C.3       5 UNK         0.0660 
     19 N          26.8226   -1.0246   -6.7322 N.am      5 UNK        -0.4015 
     20 C          26.1592   -0.5993   -7.8132 C.2       4 UNK         0.4946 
     21 O          26.6275    0.1936   -8.6296 O.2       4 UNK        -0.5353 
     22 CA         24.7217   -1.1160   -7.9880 C.3       4 UNK         0.0277 
     23 CB         24.7208   -2.5004   -8.6554 C.3       4 UNK        -0.1981 
     24 N          23.9923   -1.1777   -6.7172 N.am      4 UNK        -0.4209 
     25 C          23.6578   -0.1003   -5.9918 C.2       3 UNK         0.4942 
     26 O          23.8714    1.0553   -6.3530 O.2       3 UNK        -0.5208 
     27 CA         23.0178   -0.3476   -4.6147 C.3       3 UNK         0.0250 
     28 CB         21.4894   -0.4480   -4.7428 C.3       3 UNK        -0.1990 
     29 N          23.5323   -1.5336   -3.9208 N.am      3 UNK        -0.4232 
     30 C          24.8080   -1.7197   -3.5533 C.2       2 UNK         0.4993 
     31 O          25.7205   -0.9283   -3.8059 O.2       2 UNK        -0.5286 
     32 CA         25.1199   -3.0544   -2.8582 C.3       2 UNK         0.0209 
     33 CB         25.3745   -4.1478   -3.9099 C.3       2 UNK        -0.1931 
     34 N          26.2862   -2.9738   -1.9773 N.am      2 UNK        -0.4546 
     35 C          26.3302   -2.3383   -0.7967 C.2       1 UNK         0.5154 
     36 O          25.3757   -1.7306   -0.3106 O.2       1 UNK        -0.5181 
     37 C          28.1331    0.8909   -5.8668 C.2       5 UNK         0.5014 
     38 O          29.0235    1.6603   -6.2244 O.2       5 UNK        -0.5248 
     39 N          27.0899    1.2739   -5.1135 N.am      6 UNK        -0.4434 
     40 CA         26.8242    2.6632   -4.7176 C.3       6 UNK         0.0363 
     41 CB         25.6482    2.7076   -3.7300 C.3       6 UNK        -0.1936 
     42 C          26.5699    3.5937   -5.9218 C.2       6 UNK         0.5081 
     43 O          26.9777    4.7544   -5.8878 O.2       6 UNK        -0.5248 
     44 N          25.9553    3.0533   -6.9834 N.am      7 UNK        -0.4718 
     45 CA         25.7858    3.6909   -8.2936 C.3       7 UNK         0.0273 
     46 CB         24.5723    3.0604   -8.9990 C.3       7 UNK        -0.1935 
     47 C          27.0447    3.6237   -9.1879 C.2       7 UNK         0.5018 
     48 O          26.9873    4.0906  -10.3266 O.2       7 UNK        -0.5186 
     49 N          28.1493    3.0650   -8.6702 N.am      8 UNK        -0.4240 
     50 CA         29.4745    2.9408   -9.2843 C.3       8 UNK         0.0235 
     51 CB         30.0795    4.3272   -9.5980 C.3       8 UNK        -0.2000 
     52 C          29.5369    1.9673  -10.4764 C.2       8 UNK         0.4941 
     53 O          30.3622    2.1646  -11.3707 O.2       8 UNK        -0.5273 
     54 N          28.7154    0.9045  -10.4639 N.am      9 UNK        -0.4262 
     55 CA         28.8090   -0.2003  -11.4297 C.3       9 UNK         0.0264 
     56 CB         27.5254   -1.0450  -11.3895 C.3       9 UNK        -0.1955 
     57 C          30.0425   -1.0958  -11.1966 C.2       9 UNK         0.5031 
     58 O          30.5043   -1.7410  -12.1391 O.2       9 UNK        -0.5390 
     59 N          30.5557   -1.1135   -9.9611 N.am      10 UNK        -0.4204 
     60 CA         31.7759   -1.7908   -9.5385 C.3       10 UNK         0.0237 
     61 CB         31.4715   -3.2556   -9.1777 C.3       10 UNK        -0.1985 
     62 C          32.3445   -1.0284   -8.3363 C.2       10 UNK         0.4970 
     63 O          31.5737   -0.4032   -7.6030 O.2       10 UNK        -0.4914 
     64 N          33.6707   -1.1031   -8.1640 N.am      11 UNK        -0.4285 
     65 CA         34.4515   -0.4256   -7.1119 C.3       11 UNK         0.1007 
     66 C          34.3203    1.1304   -7.1565 C.2       11 UNK         0.5703 
     67 N          34.5316    1.8336   -6.0509 N.am      11 UNK        -0.7361 
     68 O          34.0908    1.7192   -8.2119 O.2       11 UNK        -0.4986 
     69 C69        34.2286   -1.0531   -5.7026 C.3       12 UNK        -0.0947 
     70 S70        34.6731   -2.8226   -5.6504 S.3       12 UNK        -0.2240 
     71 C71        34.4510   -3.2017   -3.8796 C.3       12 UNK         0.0194 
     72 H72        26.0293   -5.2868   -0.1860 H         1 UNK         0.0906 
     73 H73        26.9307   -6.3279    0.9097 H         1 UNK         0.0906 
     74 H74        26.6184   -4.6631    1.3658 H         1 UNK         0.0906 
     75 H75        29.3755   -3.4038   -0.7284 H         1 UNK         0.3140 
     76 H76        27.3930   -2.5267    1.0476 H         1 UNK         0.1085 
     77 H77        27.9592   -0.3245    0.4444 H         1 UNK         0.0836 
     78 H78        28.4213   -0.7184   -1.1707 H         1 UNK         0.0836 
     79 H79        32.0572   -0.1772   -0.6923 H         1 UNK         0.0731 
     80 H80        30.5842    0.1903   -1.5411 H         1 UNK         0.0731 
     81 H81        33.5588   -1.4546   -1.9774 H         1 UNK         0.1312 
     82 H82        32.1753   -4.3872   -4.7870 H         1 UNK         0.1406 
     83 H83        29.3635   -2.1778   -2.4575 H         1 UNK         0.1631 
     84 H84        28.6240   -4.1321   -3.7170 H         1 UNK         0.0717 
     85 H85        29.7642   -5.0980   -4.6152 H         1 UNK         0.0717 
     86 H86        28.2469   -1.4937   -4.3925 H         1 UNK         0.0934 
     87 H87        29.8170   -1.0974   -5.0718 H         1 UNK         0.0934 
     88 H88        28.7797   -0.5900   -7.2579 H         1 UNK         0.0739 
     89 H89        26.3639   -1.6462   -6.0834 H         1 UNK         0.3093 
     90 H90        24.1973   -0.4191   -8.6453 H         1 UNK         0.0818 
     91 H91        25.2310   -3.2476   -8.0461 H         1 UNK         0.0819 
     92 H92        23.7051   -2.8519   -8.8381 H         1 UNK         0.0819 
     93 H93        25.2265   -2.4669   -9.6213 H         1 UNK         0.0819 
     94 H94        23.7619   -2.0926   -6.3582 H         1 UNK         0.3041 
     95 H95        23.2479    0.5173   -3.9895 H         1 UNK         0.0784 
     96 H96        21.0810    0.4352   -5.2366 H         1 UNK         0.0793 
     97 H97        21.1872   -1.3174   -5.3284 H         1 UNK         0.0793 
     98 H98        21.0123   -0.5180   -3.7650 H         1 UNK         0.0793 
     99 H99        22.8527   -2.2449   -3.6909 H         1 UNK         0.3024 
    100 H100       24.2583   -3.3395   -2.2497 H         1 UNK         0.1171 
    101 H101       25.5856   -5.1091   -3.4406 H         1 UNK         0.0786 
    102 H102       24.5030   -4.2903   -4.5502 H         1 UNK         0.0786 
    103 H103       26.2161   -3.8995   -4.5577 H         1 UNK         0.0786 
    104 H104       27.1212   -3.4445   -2.2890 H         1 UNK         0.2977 
    105 H105       26.4333    0.5656   -4.7929 H         1 UNK         0.3127 
    106 H106       27.7137    3.0300   -4.2009 H         1 UNK         0.0770 
    107 H107       24.7124    2.4135   -4.2037 H         1 UNK         0.0814 
    108 H108       25.5091    3.7164   -3.3397 H         1 UNK         0.0814 
    109 H109       25.8164    2.0485   -2.8780 H         1 UNK         0.0814 
    110 H110       25.5766    2.1164   -6.8910 H         1 UNK         0.2983 
    111 H111       25.5694    4.7495   -8.1348 H         1 UNK         0.0947 
    112 H112       24.3578    3.5661   -9.9412 H         1 UNK         0.0806 
    113 H113       23.6750    3.1299   -8.3836 H         1 UNK         0.0806 
    114 H114       24.7407    2.0078   -9.2260 H         1 UNK         0.0806 
    115 H115       28.0887    2.6854   -7.7315 H         1 UNK         0.3000 
    116 H116       30.1076    2.4889   -8.5190 H         1 UNK         0.0850 
    117 H117       31.1279    4.2398   -9.8861 H         1 UNK         0.0810 
    118 H118       30.0392    4.9837   -8.7286 H         1 UNK         0.0810 
    119 H119       29.5589    4.8216  -10.4186 H         1 UNK         0.0810 
    120 H120       28.0181    0.8081   -9.7263 H         1 UNK         0.3040 
    121 H121       28.8958    0.2307  -12.4297 H         1 UNK         0.0766 
    122 H122       26.6346   -0.4270  -11.5051 H         1 UNK         0.0812 
    123 H123       27.4368   -1.5952  -10.4524 H         1 UNK         0.0812 
    124 H124       27.5197   -1.7797  -12.1957 H         1 UNK         0.0812 
    125 H125       30.1489   -0.5222   -9.2475 H         1 UNK         0.3205 
    126 H126       32.5051   -1.7557  -10.3509 H         1 UNK         0.0754 
    127 H127       32.3701   -3.7711   -8.8364 H         1 UNK         0.0769 
    128 H128       31.0879   -3.8051  -10.0375 H         1 UNK         0.0769 
    129 H129       30.7322   -3.3255   -8.3795 H         1 UNK         0.0769 
    130 H130       34.2158   -1.6320   -8.8285 H         1 UNK         0.2981 
    131 H131       35.4938   -0.6050   -7.3773 H         1 UNK         0.0541 
    132 H132       34.7435    1.3803   -5.1768 H         1 UNK         0.3459 
    133 H133       34.4693    2.8385   -6.0933 H         1 UNK         0.3459 
    134 H134       33.1889   -0.9344   -5.3925 H         1 UNK         0.0612 
    135 H135       34.8389   -0.5532   -4.9496 H         1 UNK         0.0612 
    136 H136       35.1570   -2.6066   -3.2984 H         1 UNK         0.0624 
    137 H137       34.7092   -4.2471   -3.7062 H         1 UNK         0.0624 
@<TRIPOS>BOND
     1    1    2 1    
     2    1   72 1    
     3    1   73 1    
     4    1   74 1    
     5    2    3 2    
     6    2    4 am   BACKBONE|DICT|INTERRES
     7    4    5 1    
     8    4   75 1    
     9    5    6 1    
    10    5   35 1    
    11    5   76 1    
    12    6    7 1    
    13    6   77 1    
    14    6   78 1    
    15    7    8 1    
    16    8    9 1    
    17    8   79 1    
    18    8   80 1    
    19    9   10 ar   
    20    9   14 ar   
    21   10   11 ar   
    22   10   81 1    
    23   11   12 ar   
    24   11   71 1    
    25   12   13 ar   
    26   12   82 1    
    27   13   14 ar   
    28   13   15 1    
    29   14   83 1    
    30   15   16 1    
    31   15   84 1    
    32   15   85 1    
    33   16   17 1    
    34   17   18 1    
    35   17   86 1    
    36   17   87 1    
    37   18   19 1    
    38   18   37 1    
    39   18   88 1    
    40   19   20 am   BACKBONE|DICT|INTERRES
    41   19   89 1    
    42   20   21 2    
    43   20   22 1    
    44   22   23 1    
    45   22   24 1    
    46   22   90 1    
    47   23   91 1    
    48   23   92 1    
    49   23   93 1    
    50   24   25 am   BACKBONE|DICT|INTERRES
    51   24   94 1    
    52   25   26 2    
    53   25   27 1    
    54   27   28 1    
    55   27   29 1    
    56   27   95 1    
    57   28   96 1    
    58   28   97 1    
    59   28   98 1    
    60   29   30 am   BACKBONE|DICT|INTERRES
    61   29   99 1    
    62   30   31 2    
    63   30   32 1    
    64   32   33 1    
    65   32   34 1    
    66   32  100 1    
    67   33  101 1    
    68   33  102 1    
    69   33  103 1    
    70   34   35 am   BACKBONE|DICT|INTERRES
    71   34  104 1    
    72   35   36 2    
    73   37   38 2    
    74   37   39 am   BACKBONE|DICT|INTERRES
    75   39   40 1    
    76   39  105 1    
    77   40   41 1    
    78   40   42 1    
    79   40  106 1    
    80   41  107 1    
    81   41  108 1    
    82   41  109 1    
    83   42   43 2    
    84   42   44 am   BACKBONE|DICT|INTERRES
    85   44   45 1    
    86   44  110 1    
    87   45   46 1    
    88   45   47 1    
    89   45  111 1    
    90   46  112 1    
    91   46  113 1    
    92   46  114 1    
    93   47   48 2    
    94   47   49 am   BACKBONE|DICT|INTERRES
    95   49   50 1    
    96   49  115 1    
    97   50   51 1    
    98   50   52 1    
    99   50  116 1    
   100   51  117 1    
   101   51  118 1    
   102   51  119 1    
   103   52   53 2    
   104   52   54 am   BACKBONE|DICT|INTERRES
   105   54   55 1    
   106   54  120 1    
   107   55   56 1    
   108   55   57 1    
   109   55  121 1    
   110   56  122 1    
   111   56  123 1    
   112   56  124 1    
   113   57   58 2    
   114   57   59 am   BACKBONE|DICT|INTERRES
   115   59   60 1    
   116   59  125 1    
   117   60   61 1    
   118   60   62 1    
   119   60  126 1    
   120   61  127 1    
   121   61  128 1    
   122   61  129 1    
   123   62   63 2    
   124   62   64 am   BACKBONE|DICT|INTERRES
   125   64   65 1    
   126   64  130 1    
   127   65   66 1    
   128   65   69 1    
   129   65  131 1    
   130   66   67 am   BACKBONE|DICT|INTERRES
   131   66   68 2    
   132   67  132 1    
   133   67  133 1    
   134   69   70 1    
   135   69  134 1    
   136   69  135 1    
   137   70   71 1    
   138   71  136 1    
   139   71  137 1    
@<TRIPOS>SUBSTRUCTURE
     1 UNK         1 GROUP             0       ****    0 ROOT    
