@<TRIPOS>MOLECULE
3R137
137   139    1
SMALL
USER_CHARGES


@<TRIPOS>ATOM
      1 CA         27.9459    0.4099    3.7595 C.3       0 UNK        -0.2020 
      2 C          28.2534    0.2152    2.2822 C.2       0 UNK         0.4855 
      3 O          28.8599    1.0905    1.6649 O.2       0 UNK        -0.5197 
      4 N          27.8461   -0.9288    1.7160 N.am      1 UNK        -0.4892 
      5 CA         28.0084   -1.2759    0.2995 C.3       1 UNK         0.0835 
      6 C6         27.7492   -2.7914    0.0777 C.3       12 UNK        -0.0855 
      7 S7         27.8126   -3.3152   -1.6666 S.3       12 UNK        -0.2931 
      8 C8         29.4183   -4.1593   -1.7796 C.3       12 UNK         0.0378 
      9 C9         29.8964   -4.1759   -3.2233 C.ar      12 UNK        -0.0802 
     10 C10        31.0197   -3.4360   -3.6006 C.ar      12 UNK        -0.0944 
     11 C11        31.4248   -3.3885   -4.9376 C.ar      12 UNK        -0.0787 
     12 C12        30.6953   -4.0915   -5.9046 C.ar      12 UNK        -0.0862 
     13 C13        29.5813   -4.8557   -5.5352 C.ar      12 UNK        -0.0733 
     14 C14        29.1944   -4.8994   -4.1921 C.ar      12 UNK        -0.0832 
     15 C15        28.8125   -5.6700   -6.5681 C.3       12 UNK         0.0240 
     16 S16        27.0970   -5.0803   -6.7830 S.3       12 UNK        -0.2522 
     17 C17        27.0838   -4.4600   -8.5057 C.3       12 UNK        -0.0967 
     18 CA         26.6794   -2.9718   -8.6507 C.3       5 UNK         0.0660 
     19 N          25.3775   -2.6724   -8.0471 N.am      5 UNK        -0.4015 
     20 C          24.6999   -1.5300   -8.2333 C.2       4 UNK         0.4946 
     21 O          25.0744   -0.6252   -8.9778 O.2       4 UNK        -0.5353 
     22 CA         23.4063   -1.3420   -7.4234 C.3       4 UNK         0.0277 
     23 CB         22.2110   -1.9640   -8.1628 C.3       4 UNK        -0.1981 
     24 N          23.4819   -1.8815   -6.0620 N.am      4 UNK        -0.4209 
     25 C          24.3504   -1.4720   -5.1272 C.2       3 UNK         0.4942 
     26 O          25.2099   -0.6089   -5.3198 O.2       3 UNK        -0.5208 
     27 CA         24.2812   -2.2065   -3.7787 C.3       3 UNK         0.0250 
     28 CB         25.0889   -3.5121   -3.8566 C.3       3 UNK        -0.1990 
     29 N          24.7782   -1.3904   -2.6659 N.am      3 UNK        -0.4232 
     30 C          24.1657   -0.2932   -2.1947 C.2       2 UNK         0.4993 
     31 O          23.0893    0.1152   -2.6356 O.2       2 UNK        -0.5286 
     32 CA         24.8263    0.4651   -1.0223 C.3       2 UNK         0.0209 
     33 CB         23.7804    0.9643   -0.0071 C.3       2 UNK        -0.1931 
     34 N          25.8269   -0.3282   -0.3011 N.am      2 UNK        -0.4546 
     35 C          27.1328   -0.3693   -0.5966 C.2       1 UNK         0.5154 
     36 O          27.6440    0.2684   -1.5173 O.2       1 UNK        -0.5181 
     37 C          27.7835   -2.0189   -8.1557 C.2       5 UNK         0.5014 
     38 O          28.5645   -1.5298   -8.9720 O.2       5 UNK        -0.5248 
     39 N          27.7965   -1.7378   -6.8449 N.am      6 UNK        -0.4434 
     40 CA         28.7151   -0.7972   -6.2068 C.3       6 UNK         0.0363 
     41 CB         28.5840   -0.8921   -4.6790 C.3       6 UNK        -0.1936 
     42 C          28.4754    0.6390   -6.6871 C.2       6 UNK         0.5081 
     43 O          29.4322    1.3258   -7.0411 O.2       6 UNK        -0.5248 
     44 N          27.1994    1.0468   -6.7394 N.am      7 UNK        -0.4718 
     45 CA         26.7622    2.3476   -7.2493 C.3       7 UNK         0.0273 
     46 CB         25.2530    2.5108   -7.0096 C.3       7 UNK        -0.1935 
     47 C          27.1091    2.5647   -8.7332 C.2       7 UNK         0.5018 
     48 O          27.5419    3.6600   -9.0934 O.2       7 UNK        -0.5186 
     49 N          26.9262    1.5244   -9.5590 N.am      8 UNK        -0.4240 
     50 CA         27.2514    1.5342  -10.9853 C.3       8 UNK         0.0235 
     51 CB         26.5892    0.3328  -11.6798 C.3       8 UNK        -0.2000 
     52 C          28.7640    1.5493  -11.2556 C.2       8 UNK         0.4941 
     53 O          29.2205    2.3610  -12.0620 O.2       8 UNK        -0.5273 
     54 N          29.5107    0.6451  -10.6053 N.am      9 UNK        -0.4262 
     55 CA         30.9480    0.4688  -10.8298 C.3       9 UNK         0.0264 
     56 CB         31.3733   -0.9296  -10.3506 C.3       9 UNK        -0.1955 
     57 C          31.8182    1.5380  -10.1526 C.2       9 UNK         0.5031 
     58 O          32.9254    1.7874  -10.6300 O.2       9 UNK        -0.5390 
     59 N          31.3479    2.0885   -9.0223 N.am      10 UNK        -0.4204 
     60 CA         32.0532    2.9841   -8.0906 C.3       10 UNK         0.0237 
     61 CB         32.5158    4.2827   -8.7845 C.3       10 UNK        -0.1985 
     62 C          33.1954    2.3037   -7.3039 C.2       10 UNK         0.4970 
     63 O          33.8380    2.9691   -6.4905 O.2       10 UNK        -0.4914 
     64 N          33.4134    1.0020   -7.5397 N.am      11 UNK        -0.4285 
     65 CA         34.4055    0.1259   -6.8956 C.3       11 UNK         0.1007 
     66 C          35.8925    0.5290   -7.1383 C.2       11 UNK         0.5703 
     67 N          36.2019    1.2989   -8.1754 N.am      11 UNK        -0.7361 
     68 O          36.7853    0.1137   -6.4027 O.2       11 UNK        -0.4986 
     69 C69        34.0792   -0.1572   -5.4017 C.3       12 UNK        -0.0947 
     70 S70        32.3884   -0.8004   -5.1541 S.3       12 UNK        -0.2240 
     71 C71        32.6652   -2.5914   -5.3167 C.3       12 UNK         0.0194 
     72 H72        27.4080   -0.4388    4.1813 H         1 UNK         0.0906 
     73 H73        28.8708    0.5377    4.3215 H         1 UNK         0.0906 
     74 H74        27.3356    1.3015    3.9010 H         1 UNK         0.0906 
     75 H75        27.3633   -1.6104    2.2848 H         1 UNK         0.3140 
     76 H76        29.0475   -1.0764    0.0266 H         1 UNK         0.1085 
     77 H77        26.7651   -3.0666    0.4613 H         1 UNK         0.0836 
     78 H78        28.4642   -3.3792    0.6557 H         1 UNK         0.0836 
     79 H79        29.3250   -5.1793   -1.4042 H         1 UNK         0.0731 
     80 H80        30.1442   -3.6522   -1.1420 H         1 UNK         0.0731 
     81 H81        31.5722   -2.8766   -2.8580 H         1 UNK         0.1312 
     82 H82        31.0039   -4.0566   -6.9404 H         1 UNK         0.1406 
     83 H83        28.3261   -5.4763   -3.9032 H         1 UNK         0.1631 
     84 H84        28.7766   -6.7081   -6.2348 H         1 UNK         0.0717 
     85 H85        29.3440   -5.6856   -7.5198 H         1 UNK         0.0717 
     86 H86        28.0480   -4.6328   -8.9865 H         1 UNK         0.0934 
     87 H87        26.3772   -5.0759   -9.0642 H         1 UNK         0.0934 
     88 H88        26.5728   -2.7790   -9.7208 H         1 UNK         0.0739 
     89 H89        25.0055   -3.3661   -7.4155 H         1 UNK         0.3093 
     90 H90        23.2305   -0.2677   -7.3380 H         1 UNK         0.0818 
     91 H91        21.2723   -1.7491   -7.6519 H         1 UNK         0.0819 
     92 H92        22.1261   -1.5609   -9.1731 H         1 UNK         0.0819 
     93 H93        22.3063   -3.0469   -8.2513 H         1 UNK         0.0819 
     94 H94        22.8152   -2.6021   -5.8237 H         1 UNK         0.3041 
     95 H95        23.2380   -2.4532   -3.5699 H         1 UNK         0.0784 
     96 H96        24.6879   -4.1806   -4.6194 H         1 UNK         0.0793 
     97 H97        26.1336   -3.3254   -4.1094 H         1 UNK         0.0793 
     98 H98        25.0624   -4.0545   -2.9113 H         1 UNK         0.0793 
     99 H99        25.6764   -1.6451   -2.2808 H         1 UNK         0.3024 
    100 H100       25.3099    1.3423   -1.4588 H         1 UNK         0.1171 
    101 H101       24.2500    1.5187    0.8058 H         1 UNK         0.0786 
    102 H102       23.0622    1.6372   -0.4777 H         1 UNK         0.0786 
    103 H103       23.2169    0.1391    0.4299 H         1 UNK         0.0786 
    104 H104       25.4890   -0.8889    0.4680 H         1 UNK         0.2977 
    105 H105       27.0974   -2.1605   -6.2528 H         1 UNK         0.3127 
    106 H106       29.7297   -1.0867   -6.4863 H         1 UNK         0.0770 
    107 H107       29.3554   -0.2997   -4.1860 H         1 UNK         0.0814 
    108 H108       27.6209   -0.5288   -4.3209 H         1 UNK         0.0814 
    109 H109       28.6959   -1.9183   -4.3357 H         1 UNK         0.0814 
    110 H110       26.4781    0.4201   -6.3901 H         1 UNK         0.2983 
    111 H111       27.2847    3.1155   -6.6749 H         1 UNK         0.0947 
    112 H112       24.6754    1.7656   -7.5569 H         1 UNK         0.0806 
    113 H113       24.9102    3.4938   -7.3351 H         1 UNK         0.0806 
    114 H114       25.0061    2.4131   -5.9521 H         1 UNK         0.0806 
    115 H115       26.4929    0.6798   -9.1939 H         1 UNK         0.3000 
    116 H116       26.8300    2.4442  -11.4181 H         1 UNK         0.0850 
    117 H117       26.8191    0.3203  -12.7461 H         1 UNK         0.0810 
    118 H118       25.5040    0.3699  -11.5828 H         1 UNK         0.0810 
    119 H119       26.9282   -0.6150  -11.2597 H         1 UNK         0.0810 
    120 H120       29.0628   -0.0165   -9.9728 H         1 UNK         0.3040 
    121 H121       31.1369    0.5257  -11.9041 H         1 UNK         0.0766 
    122 H122       31.2202   -1.0546   -9.2776 H         1 UNK         0.0812 
    123 H123       32.4298   -1.1100  -10.5543 H         1 UNK         0.0812 
    124 H124       30.8085   -1.7109  -10.8596 H         1 UNK         0.0812 
    125 H125       30.4515    1.7621   -8.6676 H         1 UNK         0.3205 
    126 H126       31.3108    3.2658   -7.3426 H         1 UNK         0.0754 
    127 H127       32.8768    5.0069   -8.0533 H         1 UNK         0.0769 
    128 H128       31.6972    4.7540   -9.3287 H         1 UNK         0.0769 
    129 H129       33.3295    4.1045   -9.4876 H         1 UNK         0.0769 
    130 H130       32.8349    0.5572   -8.2340 H         1 UNK         0.2981 
    131 H131       34.3111   -0.8266   -7.4176 H         1 UNK         0.0541 
    132 H132       35.4810    1.6339   -8.7954 H         1 UNK         0.3459 
    133 H133       37.1650    1.5485   -8.3359 H         1 UNK         0.3459 
    134 H134       34.1836    0.7555   -4.8131 H         1 UNK         0.0612 
    135 H135       34.7866   -0.8712   -4.9768 H         1 UNK         0.0612 
    136 H136       33.4907   -2.8926   -4.6702 H         1 UNK         0.0624 
    137 H137       32.9719   -2.8139   -6.3397 H         1 UNK         0.0624 
@<TRIPOS>BOND
     1    1    2 1    
     2    1   72 1    
     3    1   73 1    
     4    1   74 1    
     5    2    3 2    
     6    2    4 am   BACKBONE|DICT|INTERRES
     7    4    5 1    
     8    4   75 1    
     9    5    6 1    
    10    5   35 1    
    11    5   76 1    
    12    6    7 1    
    13    6   77 1    
    14    6   78 1    
    15    7    8 1    
    16    8    9 1    
    17    8   79 1    
    18    8   80 1    
    19    9   10 ar   
    20    9   14 ar   
    21   10   11 ar   
    22   10   81 1    
    23   11   12 ar   
    24   11   71 1    
    25   12   13 ar   
    26   12   82 1    
    27   13   14 ar   
    28   13   15 1    
    29   14   83 1    
    30   15   16 1    
    31   15   84 1    
    32   15   85 1    
    33   16   17 1    
    34   17   18 1    
    35   17   86 1    
    36   17   87 1    
    37   18   19 1    
    38   18   37 1    
    39   18   88 1    
    40   19   20 am   BACKBONE|DICT|INTERRES
    41   19   89 1    
    42   20   21 2    
    43   20   22 1    
    44   22   23 1    
    45   22   24 1    
    46   22   90 1    
    47   23   91 1    
    48   23   92 1    
    49   23   93 1    
    50   24   25 am   BACKBONE|DICT|INTERRES
    51   24   94 1    
    52   25   26 2    
    53   25   27 1    
    54   27   28 1    
    55   27   29 1    
    56   27   95 1    
    57   28   96 1    
    58   28   97 1    
    59   28   98 1    
    60   29   30 am   BACKBONE|DICT|INTERRES
    61   29   99 1    
    62   30   31 2    
    63   30   32 1    
    64   32   33 1    
    65   32   34 1    
    66   32  100 1    
    67   33  101 1    
    68   33  102 1    
    69   33  103 1    
    70   34   35 am   BACKBONE|DICT|INTERRES
    71   34  104 1    
    72   35   36 2    
    73   37   38 2    
    74   37   39 am   BACKBONE|DICT|INTERRES
    75   39   40 1    
    76   39  105 1    
    77   40   41 1    
    78   40   42 1    
    79   40  106 1    
    80   41  107 1    
    81   41  108 1    
    82   41  109 1    
    83   42   43 2    
    84   42   44 am   BACKBONE|DICT|INTERRES
    85   44   45 1    
    86   44  110 1    
    87   45   46 1    
    88   45   47 1    
    89   45  111 1    
    90   46  112 1    
    91   46  113 1    
    92   46  114 1    
    93   47   48 2    
    94   47   49 am   BACKBONE|DICT|INTERRES
    95   49   50 1    
    96   49  115 1    
    97   50   51 1    
    98   50   52 1    
    99   50  116 1    
   100   51  117 1    
   101   51  118 1    
   102   51  119 1    
   103   52   53 2    
   104   52   54 am   BACKBONE|DICT|INTERRES
   105   54   55 1    
   106   54  120 1    
   107   55   56 1    
   108   55   57 1    
   109   55  121 1    
   110   56  122 1    
   111   56  123 1    
   112   56  124 1    
   113   57   58 2    
   114   57   59 am   BACKBONE|DICT|INTERRES
   115   59   60 1    
   116   59  125 1    
   117   60   61 1    
   118   60   62 1    
   119   60  126 1    
   120   61  127 1    
   121   61  128 1    
   122   61  129 1    
   123   62   63 2    
   124   62   64 am   BACKBONE|DICT|INTERRES
   125   64   65 1    
   126   64  130 1    
   127   65   66 1    
   128   65   69 1    
   129   65  131 1    
   130   66   67 am   BACKBONE|DICT|INTERRES
   131   66   68 2    
   132   67  132 1    
   133   67  133 1    
   134   69   70 1    
   135   69  134 1    
   136   69  135 1    
   137   70   71 1    
   138   71  136 1    
   139   71  137 1    
@<TRIPOS>SUBSTRUCTURE
     1 UNK         1 GROUP             0       ****    0 ROOT    
