@<TRIPOS>MOLECULE
3R137
137   139    1
SMALL
USER_CHARGES


@<TRIPOS>ATOM
      1 CA         25.5221   -6.3545   -3.3774 C.3       0 UNK        -0.2020 
      2 C          25.7110   -5.6736   -2.0313 C.2       0 UNK         0.4855 
      3 O          24.8180   -5.7354   -1.1861 O.2       0 UNK        -0.5197 
      4 N          26.8723   -5.0383   -1.8200 N.am      1 UNK        -0.4892 
      5 CA         27.2477   -4.3834   -0.5568 C.3       1 UNK         0.0835 
      6 C6         28.7604   -4.0595   -0.4849 C.3       12 UNK        -0.0855 
      7 S7         29.7901   -5.5490   -0.7397 S.3       12 UNK        -0.2931 
      8 C8         31.3418   -4.8555   -1.4058 C.3       12 UNK         0.0378 
      9 C9         31.1350   -4.0217   -2.6650 C.ar      12 UNK        -0.0802 
     10 C10        31.6162   -2.7090   -2.7180 C.ar      12 UNK        -0.0944 
     11 C11        31.4129   -1.9187   -3.8531 C.ar      12 UNK        -0.0787 
     12 C12        30.7040   -2.4533   -4.9332 C.ar      12 UNK        -0.0862 
     13 C13        30.2258   -3.7659   -4.9007 C.ar      12 UNK        -0.0733 
     14 C14        30.4585   -4.5517   -3.7692 C.ar      12 UNK        -0.0832 
     15 C15        29.4731   -4.3335   -6.0964 C.3       12 UNK         0.0240 
     16 S16        27.7247   -4.7099   -5.7410 S.3       12 UNK        -0.2522 
     17 C17        27.0469   -3.1280   -5.1363 C.3       12 UNK        -0.0967 
     18 CA         26.6730   -2.1377   -6.2739 C.3       5 UNK         0.0660 
     19 N          25.4269   -1.4192   -5.9991 N.am      5 UNK        -0.4015 
     20 C          24.7470   -0.6907   -6.8970 C.2       4 UNK         0.4946 
     21 O          25.0533   -0.6043   -8.0863 O.2       4 UNK        -0.5353 
     22 CA         23.5475    0.1149   -6.3666 C.3       4 UNK         0.0277 
     23 CB         22.2809   -0.7552   -6.3378 C.3       4 UNK        -0.1981 
     24 N          23.7874    0.6809   -5.0353 N.am      4 UNK        -0.4209 
     25 C          24.7120    1.6156   -4.7706 C.2       3 UNK         0.4942 
     26 O          25.4077    2.1477   -5.6338 O.2       3 UNK        -0.5208 
     27 CA         24.9371    1.9892   -3.2946 C.3       3 UNK         0.0250 
     28 CB         24.0235    3.1586   -2.8950 C.3       3 UNK        -0.1990 
     29 N          24.7596    0.8829   -2.3459 N.am      3 UNK        -0.4232 
     30 C          25.4033   -0.2928   -2.3805 C.2       2 UNK         0.4993 
     31 O          26.1972   -0.6200   -3.2687 O.2       2 UNK        -0.5286 
     32 CA         25.0616   -1.2787   -1.2575 C.3       2 UNK         0.0209 
     33 CB         23.6076   -1.7747   -1.3770 C.3       2 UNK        -0.1931 
     34 N          25.9593   -2.4296   -1.3164 N.am      2 UNK        -0.4546 
     35 C          26.4002   -3.1268   -0.2621 C.2       1 UNK         0.5154 
     36 O          26.1439   -2.8309    0.9064 O.2       1 UNK        -0.5181 
     37 C          27.8090   -1.1352   -6.5345 C.2       5 UNK         0.5014 
     38 O          28.5309   -1.2770   -7.5213 O.2       5 UNK        -0.5248 
     39 N          27.9243   -0.1249   -5.6580 N.am      6 UNK        -0.4434 
     40 CA         28.9144    0.9502   -5.7492 C.3       6 UNK         0.0363 
     41 CB         28.7984    1.8775   -4.5302 C.3       6 UNK        -0.1936 
     42 C          28.8254    1.7502   -7.0561 C.2       6 UNK         0.5081 
     43 O          29.8625    2.0381   -7.6526 O.2       6 UNK        -0.5248 
     44 N          27.5972    2.0565   -7.4937 N.am      7 UNK        -0.4718 
     45 CA         27.3064    2.6969   -8.7759 C.3       7 UNK         0.0273 
     46 CB         25.8264    3.1093   -8.8198 C.3       7 UNK        -0.1935 
     47 C          27.6585    1.8079   -9.9799 C.2       7 UNK         0.5018 
     48 O          28.2409    2.3094  -10.9415 O.2       7 UNK        -0.5186 
     49 N          27.3146    0.5131   -9.9056 N.am      8 UNK        -0.4240 
     50 CA         27.5890   -0.4770  -10.9513 C.3       8 UNK         0.0235 
     51 CB         26.8135   -1.7723  -10.6608 C.3       8 UNK        -0.2000 
     52 C          29.0884   -0.7680  -11.1273 C.2       8 UNK         0.4941 
     53 O          29.5673   -0.8046  -12.2614 O.2       8 UNK        -0.5273 
     54 N          29.8014   -0.9616  -10.0098 N.am      9 UNK        -0.4262 
     55 CA         31.2444   -1.2186   -9.9839 C.3       9 UNK         0.0264 
     56 CB         31.6091   -1.8875   -8.6514 C.3       9 UNK        -0.1955 
     57 C          32.0989    0.0444  -10.1884 C.2       9 UNK         0.5031 
     58 O          33.2783   -0.0888  -10.5182 O.2       9 UNK        -0.5390 
     59 N          31.5037    1.2272   -9.9734 N.am      10 UNK        -0.4204 
     60 CA         32.1234    2.5556   -9.9738 C.3       10 UNK         0.0237 
     61 CB         32.6723    2.9238  -11.3693 C.3       10 UNK        -0.1985 
     62 C          33.1615    2.6941   -8.8442 C.2       10 UNK         0.4970 
     63 O          34.3141    3.0492   -9.0996 O.2       10 UNK        -0.4914 
     64 N          32.7248    2.4036   -7.6108 N.am      11 UNK        -0.4285 
     65 CA         33.5356    2.5285   -6.3856 C.3       11 UNK         0.1007 
     66 C          33.8747    3.9952   -5.9850 C.2       11 UNK         0.5703 
     67 N          33.1794    5.0050   -6.4963 N.am      11 UNK        -0.7361 
     68 O          34.7909    4.2192   -5.1974 O.2       11 UNK        -0.4986 
     69 C69        32.9041    1.7787   -5.1824 C.3       12 UNK        -0.0947 
     70 S70        32.7398   -0.0166   -5.4409 S.3       12 UNK        -0.2240 
     71 C71        31.9164   -0.4779   -3.8778 C.3       12 UNK         0.0194 
     72 H72        24.9959   -5.6943   -4.0661 H         1 UNK         0.0906 
     73 H73        26.4775   -6.6311   -3.8222 H         1 UNK         0.0906 
     74 H74        24.9347   -7.2652   -3.2627 H         1 UNK         0.0906 
     75 H75        27.5851   -5.0460   -2.5359 H         1 UNK         0.3140 
     76 H76        27.0280   -5.0918    0.2456 H         1 UNK         0.1085 
     77 H77        29.0166   -3.6365    0.4886 H         1 UNK         0.0836 
     78 H78        29.0138   -3.2979   -1.2239 H         1 UNK         0.0836 
     79 H79        31.8203   -4.2649   -0.6229 H         1 UNK         0.0731 
     80 H80        32.0252   -5.6746   -1.6337 H         1 UNK         0.0731 
     81 H81        32.1423   -2.2966   -1.8677 H         1 UNK         0.1312 
     82 H82        30.5268   -1.8437   -5.8055 H         1 UNK         0.1406 
     83 H83        30.0921   -5.5690   -3.7385 H         1 UNK         0.1631 
     84 H84        29.9669   -5.2503   -6.4212 H         1 UNK         0.0717 
     85 H85        29.5188   -3.6536   -6.9462 H         1 UNK         0.0717 
     86 H86        26.1507   -3.3946   -4.5747 H         1 UNK         0.0934 
     87 H87        27.7182   -2.6886   -4.3954 H         1 UNK         0.0934 
     88 H88        26.5120   -2.7010   -7.1958 H         1 UNK         0.0739 
     89 H89        25.1632   -1.3492   -5.0256 H         1 UNK         0.3093 
     90 H90        23.3775    0.9438   -7.0575 H         1 UNK         0.0818 
     91 H91        21.4065   -0.1735   -6.0453 H         1 UNK         0.0819 
     92 H92        22.0739   -1.1729   -7.3243 H         1 UNK         0.0819 
     93 H93        22.3767   -1.5912   -5.6438 H         1 UNK         0.0819 
     94 H94        23.2453    0.3093   -4.2691 H         1 UNK         0.3041 
     95 H95        25.9709    2.3239   -3.1994 H         1 UNK         0.0784 
     96 H96        24.1535    4.0044   -3.5722 H         1 UNK         0.0793 
     97 H97        22.9699    2.8777   -2.9234 H         1 UNK         0.0793 
     98 H98        24.2500    3.5153   -1.8900 H         1 UNK         0.0793 
     99 H99        24.1173    1.0537   -1.5850 H         1 UNK         0.3024 
    100 H100       25.1957   -0.7561   -0.3073 H         1 UNK         0.1171 
    101 H101       22.8943   -0.9535   -1.2997 H         1 UNK         0.0786 
    102 H102       23.3662   -2.4812   -0.5825 H         1 UNK         0.0786 
    103 H103       23.4304   -2.2764   -2.3293 H         1 UNK         0.0786 
    104 H104       26.2776   -2.6803   -2.2418 H         1 UNK         0.2977 
    105 H105       27.2986   -0.1105   -4.8576 H         1 UNK         0.3127 
    106 H106       29.8954    0.4789   -5.7333 H         1 UNK         0.0770 
    107 H107       27.8648    2.4379   -4.5402 H         1 UNK         0.0814 
    108 H108       29.6070    2.6085   -4.5189 H         1 UNK         0.0814 
    109 H109       28.8473    1.3202   -3.5946 H         1 UNK         0.0814 
    110 H110       26.8020    1.8523   -6.8926 H         1 UNK         0.2983 
    111 H111       27.9157    3.6009   -8.8431 H         1 UNK         0.0947 
    112 H112       25.5845    3.6013   -9.7628 H         1 UNK         0.0806 
    113 H113       25.5871    3.8081   -8.0179 H         1 UNK         0.0806 
    114 H114       25.1642    2.2483   -8.7189 H         1 UNK         0.0806 
    115 H115       26.8137    0.1847   -9.0871 H         1 UNK         0.3000 
    116 H116       27.2210   -0.0703  -11.8958 H         1 UNK         0.0850 
    117 H117       27.1017   -2.2119   -9.7053 H         1 UNK         0.0810 
    118 H118       26.9967   -2.5200  -11.4336 H         1 UNK         0.0810 
    119 H119       25.7388   -1.5918  -10.6331 H         1 UNK         0.0810 
    120 H120       29.3165   -0.9671   -9.1115 H         1 UNK         0.3040 
    121 H121       31.4883   -1.9133  -10.7905 H         1 UNK         0.0766 
    122 H122       32.6759   -2.1089   -8.5984 H         1 UNK         0.0812 
    123 H123       31.0755   -2.8279   -8.5202 H         1 UNK         0.0812 
    124 H124       31.3691   -1.2377   -7.8110 H         1 UNK         0.0812 
    125 H125       30.5461    1.2085   -9.6451 H         1 UNK         0.3205 
    126 H126       31.3238    3.2617   -9.7441 H         1 UNK         0.0754 
    127 H127       33.0238    3.9561  -11.3877 H         1 UNK         0.0769 
    128 H128       31.9009    2.8301  -12.1338 H         1 UNK         0.0769 
    129 H129       33.5116    2.2917  -11.6603 H         1 UNK         0.0769 
    130 H130       31.7482    2.1472   -7.4917 H         1 UNK         0.2981 
    131 H131       34.4956    2.0522   -6.5938 H         1 UNK         0.0541 
    132 H132       32.4220    4.8323   -7.1370 H         1 UNK         0.3459 
    133 H133       33.4129    5.9488   -6.2312 H         1 UNK         0.3459 
    134 H134       31.9199    2.1922   -4.9592 H         1 UNK         0.0612 
    135 H135       33.5076    1.9190   -4.2834 H         1 UNK         0.0612 
    136 H136       32.6201   -0.3062   -3.0619 H         1 UNK         0.0624 
    137 H137       31.0711    0.1852   -3.6975 H         1 UNK         0.0624 
@<TRIPOS>BOND
     1    1    2 1    
     2    1   72 1    
     3    1   73 1    
     4    1   74 1    
     5    2    3 2    
     6    2    4 am   BACKBONE|DICT|INTERRES
     7    4    5 1    
     8    4   75 1    
     9    5    6 1    
    10    5   35 1    
    11    5   76 1    
    12    6    7 1    
    13    6   77 1    
    14    6   78 1    
    15    7    8 1    
    16    8    9 1    
    17    8   79 1    
    18    8   80 1    
    19    9   10 ar   
    20    9   14 ar   
    21   10   11 ar   
    22   10   81 1    
    23   11   12 ar   
    24   11   71 1    
    25   12   13 ar   
    26   12   82 1    
    27   13   14 ar   
    28   13   15 1    
    29   14   83 1    
    30   15   16 1    
    31   15   84 1    
    32   15   85 1    
    33   16   17 1    
    34   17   18 1    
    35   17   86 1    
    36   17   87 1    
    37   18   19 1    
    38   18   37 1    
    39   18   88 1    
    40   19   20 am   BACKBONE|DICT|INTERRES
    41   19   89 1    
    42   20   21 2    
    43   20   22 1    
    44   22   23 1    
    45   22   24 1    
    46   22   90 1    
    47   23   91 1    
    48   23   92 1    
    49   23   93 1    
    50   24   25 am   BACKBONE|DICT|INTERRES
    51   24   94 1    
    52   25   26 2    
    53   25   27 1    
    54   27   28 1    
    55   27   29 1    
    56   27   95 1    
    57   28   96 1    
    58   28   97 1    
    59   28   98 1    
    60   29   30 am   BACKBONE|DICT|INTERRES
    61   29   99 1    
    62   30   31 2    
    63   30   32 1    
    64   32   33 1    
    65   32   34 1    
    66   32  100 1    
    67   33  101 1    
    68   33  102 1    
    69   33  103 1    
    70   34   35 am   BACKBONE|DICT|INTERRES
    71   34  104 1    
    72   35   36 2    
    73   37   38 2    
    74   37   39 am   BACKBONE|DICT|INTERRES
    75   39   40 1    
    76   39  105 1    
    77   40   41 1    
    78   40   42 1    
    79   40  106 1    
    80   41  107 1    
    81   41  108 1    
    82   41  109 1    
    83   42   43 2    
    84   42   44 am   BACKBONE|DICT|INTERRES
    85   44   45 1    
    86   44  110 1    
    87   45   46 1    
    88   45   47 1    
    89   45  111 1    
    90   46  112 1    
    91   46  113 1    
    92   46  114 1    
    93   47   48 2    
    94   47   49 am   BACKBONE|DICT|INTERRES
    95   49   50 1    
    96   49  115 1    
    97   50   51 1    
    98   50   52 1    
    99   50  116 1    
   100   51  117 1    
   101   51  118 1    
   102   51  119 1    
   103   52   53 2    
   104   52   54 am   BACKBONE|DICT|INTERRES
   105   54   55 1    
   106   54  120 1    
   107   55   56 1    
   108   55   57 1    
   109   55  121 1    
   110   56  122 1    
   111   56  123 1    
   112   56  124 1    
   113   57   58 2    
   114   57   59 am   BACKBONE|DICT|INTERRES
   115   59   60 1    
   116   59  125 1    
   117   60   61 1    
   118   60   62 1    
   119   60  126 1    
   120   61  127 1    
   121   61  128 1    
   122   61  129 1    
   123   62   63 2    
   124   62   64 am   BACKBONE|DICT|INTERRES
   125   64   65 1    
   126   64  130 1    
   127   65   66 1    
   128   65   69 1    
   129   65  131 1    
   130   66   67 am   BACKBONE|DICT|INTERRES
   131   66   68 2    
   132   67  132 1    
   133   67  133 1    
   134   69   70 1    
   135   69  134 1    
   136   69  135 1    
   137   70   71 1    
   138   71  136 1    
   139   71  137 1    
@<TRIPOS>SUBSTRUCTURE
     1 UNK         1 GROUP             0       ****    0 ROOT    
