@<TRIPOS>MOLECULE
3R137
137   139    1
SMALL
USER_CHARGES


@<TRIPOS>ATOM
      1 CA         26.3077   -1.4347    2.3198 C.3       0 UNK        -0.2020 
      2 C          27.7183   -1.4539    1.7506 C.2       0 UNK         0.4855 
      3 O          28.4415   -0.4652    1.8704 O.2       0 UNK        -0.5197 
      4 N          28.1137   -2.5704    1.1259 N.am      1 UNK        -0.4892 
      5 CA         29.4208   -2.7606    0.4797 C.3       1 UNK         0.0835 
      6 C6         29.7351   -4.2650    0.2747 C.3       12 UNK        -0.0855 
      7 S7         28.4650   -5.1764   -0.6819 S.3       12 UNK        -0.2931 
      8 C8         29.4717   -6.0865   -1.8981 C.3       12 UNK         0.0378 
      9 C9         29.6447   -5.3237   -3.2056 C.ar      12 UNK        -0.0802 
     10 C10        30.6539   -4.3655   -3.3420 C.ar      12 UNK        -0.0944 
     11 C11        30.8471   -3.6995   -4.5570 C.ar      12 UNK        -0.0787 
     12 C12        30.0355   -4.0197   -5.6489 C.ar      12 UNK        -0.0862 
     13 C13        29.0104   -4.9626   -5.5233 C.ar      12 UNK        -0.0733 
     14 C14        28.8178   -5.6081   -4.2978 C.ar      12 UNK        -0.0832 
     15 C15        28.1215   -5.2944   -6.7155 C.3       12 UNK         0.0240 
     16 S16        26.6020   -4.2890   -6.7407 S.3       12 UNK        -0.2522 
     17 C17        27.3034   -2.6268   -6.9965 C.3       12 UNK        -0.0967 
     18 CA         26.2719   -1.5719   -7.4629 C.3       5 UNK         0.0660 
     19 N          25.1191   -1.4685   -6.5650 N.am      5 UNK        -0.4015 
     20 C          23.9334   -0.9527   -6.9215 C.2       4 UNK         0.4946 
     21 O          23.6911   -0.5297   -8.0528 O.2       4 UNK        -0.5353 
     22 CA         22.8274   -0.8759   -5.8508 C.3       4 UNK         0.0277 
     23 CB         21.8413   -2.0437   -6.0169 C.3       4 UNK        -0.1981 
     24 N          23.3199   -0.8565   -4.4707 N.am      4 UNK        -0.4209 
     25 C          24.0879    0.1042   -3.9395 C.2       3 UNK         0.4942 
     26 O          24.4591    1.0993   -4.5625 O.2       3 UNK        -0.5208 
     27 CA         24.5718   -0.0926   -2.4886 C.3       3 UNK         0.0250 
     28 CB         23.9331   -1.2995   -1.7628 C.3       3 UNK        -0.1990 
     29 N          26.0351   -0.1819   -2.4083 N.am      3 UNK        -0.4232 
     30 C          26.8323   -1.0026   -3.1112 C.2       2 UNK         0.4993 
     31 O          26.4288   -1.8023   -3.9540 O.2       2 UNK        -0.5286 
     32 CA         28.3180   -0.9680   -2.7532 C.3       2 UNK         0.0209 
     33 CB         28.9081    0.4583   -2.7948 C.3       2 UNK        -0.1931 
     34 N          28.4453   -1.5764   -1.4351 N.am      2 UNK        -0.4546 
     35 C          29.5756   -1.9691   -0.8376 C.2       1 UNK         0.5154 
     36 O          30.7045   -1.7501   -1.2779 O.2       1 UNK        -0.5181 
     37 C          26.9913   -0.2227   -7.6523 C.2       5 UNK         0.5014 
     38 O          27.7454   -0.0970   -8.6170 O.2       5 UNK        -0.5248 
     39 N          26.7827    0.7484   -6.7466 N.am      6 UNK        -0.4434 
     40 CA         27.5507    1.9979   -6.6495 C.3       6 UNK         0.0363 
     41 CB         27.0528    2.8085   -5.4420 C.3       6 UNK        -0.1936 
     42 C          27.5422    2.8847   -7.9088 C.2       6 UNK         0.5081 
     43 O          28.4602    3.6854   -8.0852 O.2       6 UNK        -0.5248 
     44 N          26.5125    2.7376   -8.7512 N.am      7 UNK        -0.4718 
     45 CA         26.3716    3.4464  -10.0232 C.3       7 UNK         0.0273 
     46 CB         24.8750    3.5413  -10.3656 C.3       7 UNK        -0.1935 
     47 C          27.1444    2.7917  -11.1851 C.2       7 UNK         0.5018 
     48 O          27.2901    3.4366  -12.2249 O.2       7 UNK        -0.5186 
     49 N          27.5875    1.5363  -11.0225 N.am      8 UNK        -0.4240 
     50 CA         28.2017    0.7287  -12.0810 C.3       8 UNK         0.0235 
     51 CB         27.2921   -0.4743  -12.3855 C.3       8 UNK        -0.2000 
     52 C          29.6131    0.2502  -11.7144 C.2       8 UNK         0.4941 
     53 O          30.5004    0.2914  -12.5685 O.2       8 UNK        -0.5273 
     54 N          29.7979   -0.2177  -10.4745 N.am      9 UNK        -0.4262 
     55 CA         31.0670   -0.7245   -9.9551 C.3       9 UNK         0.0264 
     56 CB         30.7728   -1.6516   -8.7639 C.3       9 UNK        -0.1955 
     57 C          32.0012    0.4173   -9.5293 C.2       9 UNK         0.5031 
     58 O          31.5443    1.5347   -9.2766 O.2       9 UNK        -0.5390 
     59 N          33.2953    0.0953   -9.3923 N.am      10 UNK        -0.4204 
     60 CA         34.3512    1.0106   -8.9377 C.3       10 UNK         0.0237 
     61 CB         35.7120    0.3011   -9.0320 C.3       10 UNK        -0.1985 
     62 C          34.1351    1.5739   -7.5190 C.2       10 UNK         0.4970 
     63 O          34.6420    2.6558   -7.2199 O.2       10 UNK        -0.4914 
     64 N          33.3779    0.8474   -6.6872 N.am      11 UNK        -0.4285 
     65 CA         32.8889    1.3004   -5.3788 C.3       11 UNK         0.1007 
     66 C          31.7334    2.3473   -5.4379 C.2       11 UNK         0.5703 
     67 N          31.1728    2.6676   -6.5991 N.am      11 UNK        -0.7361 
     68 O          31.3526    2.8958   -4.4068 O.2       11 UNK        -0.4986 
     69 C69        32.5641    0.0994   -4.4521 C.3       12 UNK        -0.0947 
     70 S70        31.2537   -1.0050   -5.0864 S.3       12 UNK        -0.2240 
     71 C71        31.9394   -2.6456   -4.6898 C.3       12 UNK         0.0194 
     72 H72        26.3393   -1.2586    3.3947 H         1 UNK         0.0906 
     73 H73        25.7285   -0.6342    1.8603 H         1 UNK         0.0906 
     74 H74        25.7839   -2.3746    2.1459 H         1 UNK         0.0906 
     75 H75        27.4860   -3.3606    1.0578 H         1 UNK         0.3140 
     76 H76        30.1797   -2.3603    1.1564 H         1 UNK         0.1085 
     77 H77        30.7165   -4.3854   -0.1870 H         1 UNK         0.0836 
     78 H78        29.8192   -4.7487    1.2491 H         1 UNK         0.0836 
     79 H79        30.4456   -6.3358   -1.4741 H         1 UNK         0.0731 
     80 H80        28.9850   -7.0433   -2.0937 H         1 UNK         0.0731 
     81 H81        31.2917   -4.1373   -2.4997 H         1 UNK         0.1312 
     82 H82        30.1926   -3.5174   -6.5926 H         1 UNK         0.1406 
     83 H83        28.0296   -6.3424   -4.1993 H         1 UNK         0.1631 
     84 H84        27.8436   -6.3490   -6.6860 H         1 UNK         0.0717 
     85 H85        28.6676   -5.1527   -7.6495 H         1 UNK         0.0717 
     86 H86        27.7883   -2.3130   -6.0706 H         1 UNK         0.0934 
     87 H87        28.0983   -2.7136   -7.7388 H         1 UNK         0.0934 
     88 H88        25.9081   -1.8785   -8.4462 H         1 UNK         0.0739 
     89 H89        25.2774   -1.7732   -5.6084 H         1 UNK         0.3093 
     90 H90        22.2843    0.0568   -6.0179 H         1 UNK         0.0818 
     91 H91        20.9993   -1.9551   -5.3300 H         1 UNK         0.0819 
     92 H92        21.4303   -2.0668   -7.0273 H         1 UNK         0.0819 
     93 H93        22.3223   -3.0066   -5.8394 H         1 UNK         0.0819 
     94 H94        23.0893   -1.6532   -3.8949 H         1 UNK         0.3041 
     95 H95        24.2823    0.8106   -1.9494 H         1 UNK         0.0784 
     96 H96        22.8444   -1.2288   -1.7548 H         1 UNK         0.0793 
     97 H97        24.2067   -2.2507   -2.2217 H         1 UNK         0.0793 
     98 H98        24.2525   -1.3386   -0.7212 H         1 UNK         0.0793 
     99 H99        26.4731    0.4552   -1.7581 H         1 UNK         0.3024 
    100 H100       28.8501   -1.5973   -3.4701 H         1 UNK         0.1171 
    101 H101       29.9724    0.4559   -2.5629 H         1 UNK         0.0786 
    102 H102       28.4242    1.1354   -2.0912 H         1 UNK         0.0786 
    103 H103       28.8128    0.8846   -3.7932 H         1 UNK         0.0786 
    104 H104       27.5753   -1.8390   -0.9927 H         1 UNK         0.2977 
    105 H105       26.0970    0.5911   -6.0174 H         1 UNK         0.3127 
    106 H106       28.5868    1.7099   -6.4646 H         1 UNK         0.0770 
    107 H107       26.0327    3.1643   -5.5931 H         1 UNK         0.0814 
    108 H108       27.6820    3.6835   -5.2733 H         1 UNK         0.0814 
    109 H109       27.0631    2.2212   -4.5250 H         1 UNK         0.0814 
    110 H110       25.8015    2.0574   -8.5219 H         1 UNK         0.2983 
    111 H111       26.7590    4.4615   -9.9092 H         1 UNK         0.0947 
    112 H112       24.7195    4.0944  -11.2931 H         1 UNK         0.0806 
    113 H113       24.3212    4.0624   -9.5844 H         1 UNK         0.0806 
    114 H114       24.4268    2.5552  -10.4953 H         1 UNK         0.0806 
    115 H115       27.4855    1.0949  -10.1132 H         1 UNK         0.3000 
    116 H116       28.2972    1.3125  -12.9990 H         1 UNK         0.0850 
    117 H117       27.7245   -1.1057  -13.1629 H         1 UNK         0.0810 
    118 H118       26.3137   -0.1491  -12.7396 H         1 UNK         0.0810 
    119 H119       27.1377   -1.0985  -11.5041 H         1 UNK         0.0810 
    120 H120       29.0287   -0.1765   -9.8074 H         1 UNK         0.3040 
    121 H121       31.5620   -1.3049  -10.7370 H         1 UNK         0.0766 
    122 H122       31.6886   -2.0701   -8.3448 H         1 UNK         0.0812 
    123 H123       30.1466   -2.4907   -9.0666 H         1 UNK         0.0812 
    124 H124       30.2581   -1.1210   -7.9617 H         1 UNK         0.0812 
    125 H125       33.5847   -0.8467   -9.6156 H         1 UNK         0.3205 
    126 H126       34.3608    1.8619   -9.6216 H         1 UNK         0.0754 
    127 H127       36.5214    0.9665   -8.7276 H         1 UNK         0.0769 
    128 H128       35.9253   -0.0167  -10.0529 H         1 UNK         0.0769 
    129 H129       35.7547   -0.5788   -8.3887 H         1 UNK         0.0769 
    130 H130       32.9942   -0.0245   -7.0167 H         1 UNK         0.2981 
    131 H131       33.7159    1.8317   -4.9041 H         1 UNK         0.0541 
    132 H132       31.4570    2.2254   -7.4678 H         1 UNK         0.3459 
    133 H133       30.4357    3.3546   -6.6229 H         1 UNK         0.3459 
    134 H134       32.2701    0.4462   -3.4601 H         1 UNK         0.0612 
    135 H135       33.4748   -0.4811   -4.2983 H         1 UNK         0.0612 
    136 H136       32.6442   -2.9404   -5.4682 H         1 UNK         0.0624 
    137 H137       32.5068   -2.5794   -3.7601 H         1 UNK         0.0624 
@<TRIPOS>BOND
     1    1    2 1    
     2    1   72 1    
     3    1   73 1    
     4    1   74 1    
     5    2    3 2    
     6    2    4 am   BACKBONE|DICT|INTERRES
     7    4    5 1    
     8    4   75 1    
     9    5    6 1    
    10    5   35 1    
    11    5   76 1    
    12    6    7 1    
    13    6   77 1    
    14    6   78 1    
    15    7    8 1    
    16    8    9 1    
    17    8   79 1    
    18    8   80 1    
    19    9   10 ar   
    20    9   14 ar   
    21   10   11 ar   
    22   10   81 1    
    23   11   12 ar   
    24   11   71 1    
    25   12   13 ar   
    26   12   82 1    
    27   13   14 ar   
    28   13   15 1    
    29   14   83 1    
    30   15   16 1    
    31   15   84 1    
    32   15   85 1    
    33   16   17 1    
    34   17   18 1    
    35   17   86 1    
    36   17   87 1    
    37   18   19 1    
    38   18   37 1    
    39   18   88 1    
    40   19   20 am   BACKBONE|DICT|INTERRES
    41   19   89 1    
    42   20   21 2    
    43   20   22 1    
    44   22   23 1    
    45   22   24 1    
    46   22   90 1    
    47   23   91 1    
    48   23   92 1    
    49   23   93 1    
    50   24   25 am   BACKBONE|DICT|INTERRES
    51   24   94 1    
    52   25   26 2    
    53   25   27 1    
    54   27   28 1    
    55   27   29 1    
    56   27   95 1    
    57   28   96 1    
    58   28   97 1    
    59   28   98 1    
    60   29   30 am   BACKBONE|DICT|INTERRES
    61   29   99 1    
    62   30   31 2    
    63   30   32 1    
    64   32   33 1    
    65   32   34 1    
    66   32  100 1    
    67   33  101 1    
    68   33  102 1    
    69   33  103 1    
    70   34   35 am   BACKBONE|DICT|INTERRES
    71   34  104 1    
    72   35   36 2    
    73   37   38 2    
    74   37   39 am   BACKBONE|DICT|INTERRES
    75   39   40 1    
    76   39  105 1    
    77   40   41 1    
    78   40   42 1    
    79   40  106 1    
    80   41  107 1    
    81   41  108 1    
    82   41  109 1    
    83   42   43 2    
    84   42   44 am   BACKBONE|DICT|INTERRES
    85   44   45 1    
    86   44  110 1    
    87   45   46 1    
    88   45   47 1    
    89   45  111 1    
    90   46  112 1    
    91   46  113 1    
    92   46  114 1    
    93   47   48 2    
    94   47   49 am   BACKBONE|DICT|INTERRES
    95   49   50 1    
    96   49  115 1    
    97   50   51 1    
    98   50   52 1    
    99   50  116 1    
   100   51  117 1    
   101   51  118 1    
   102   51  119 1    
   103   52   53 2    
   104   52   54 am   BACKBONE|DICT|INTERRES
   105   54   55 1    
   106   54  120 1    
   107   55   56 1    
   108   55   57 1    
   109   55  121 1    
   110   56  122 1    
   111   56  123 1    
   112   56  124 1    
   113   57   58 2    
   114   57   59 am   BACKBONE|DICT|INTERRES
   115   59   60 1    
   116   59  125 1    
   117   60   61 1    
   118   60   62 1    
   119   60  126 1    
   120   61  127 1    
   121   61  128 1    
   122   61  129 1    
   123   62   63 2    
   124   62   64 am   BACKBONE|DICT|INTERRES
   125   64   65 1    
   126   64  130 1    
   127   65   66 1    
   128   65   69 1    
   129   65  131 1    
   130   66   67 am   BACKBONE|DICT|INTERRES
   131   66   68 2    
   132   67  132 1    
   133   67  133 1    
   134   69   70 1    
   135   69  134 1    
   136   69  135 1    
   137   70   71 1    
   138   71  136 1    
   139   71  137 1    
@<TRIPOS>SUBSTRUCTURE
     1 UNK         1 GROUP             0       ****    0 ROOT    
