@<TRIPOS>MOLECULE
3R137
137   139    1
SMALL
USER_CHARGES


@<TRIPOS>ATOM
      1 CA         31.5636   -7.0788   -6.2687 C.3       0 UNK        -0.2020 
      2 C          30.3602   -6.4458   -5.5876 C.2       0 UNK         0.4855 
      3 O          29.4079   -7.1460   -5.2395 O.2       0 UNK        -0.5197 
      4 N          30.3830   -5.1214   -5.4069 N.am      1 UNK        -0.4892 
      5 CA         29.3242   -4.3162   -4.7868 C.3       1 UNK         0.0835 
      6 C6         29.8989   -3.0351   -4.1256 C.3       12 UNK        -0.0855 
      7 S7         31.1840   -3.4330   -2.8862 S.3       12 UNK        -0.2931 
      8 C8         30.5931   -2.5561   -1.3988 C.3       12 UNK         0.0378 
      9 C9         30.6470   -1.0334   -1.5084 C.ar      12 UNK        -0.0802 
     10 C10        31.6764   -0.3835   -2.2000 C.ar      12 UNK        -0.0944 
     11 C11        31.7001    1.0092   -2.3111 C.ar      12 UNK        -0.0787 
     12 C12        30.7071    1.7614   -1.6765 C.ar      12 UNK        -0.0862 
     13 C13        29.6992    1.1305   -0.9411 C.ar      12 UNK        -0.0733 
     14 C14        29.6683   -0.2653   -0.8710 C.ar      12 UNK        -0.0832 
     15 C15        28.6605    1.9552   -0.1946 C.3       12 UNK         0.0240 
     16 S16        27.0043    1.8063   -0.9304 S.3       12 UNK        -0.2522 
     17 C17        27.2452    2.5942   -2.5586 C.3       12 UNK        -0.0967 
     18 CA         27.1832    1.5655   -3.7268 C.3       5 UNK         0.0660 
     19 N          25.9254    0.8137   -3.7467 N.am      5 UNK        -0.4015 
     20 C          24.7013    1.3030   -3.9788 C.2       4 UNK         0.4946 
     21 O          24.4797    2.4655   -4.3273 O.2       4 UNK        -0.5353 
     22 CA         23.5329    0.3143   -3.7986 C.3       4 UNK         0.0277 
     23 CB         22.1745    1.0325   -3.6913 C.3       4 UNK        -0.1981 
     24 N          23.4632   -0.6645   -4.8842 N.am      4 UNK        -0.4209 
     25 C          24.3359   -1.6555   -5.1062 C.2       3 UNK         0.4942 
     26 O          25.3003   -1.8957   -4.3736 O.2       3 UNK        -0.5208 
     27 CA         24.0793   -2.5170   -6.3500 C.3       3 UNK         0.0250 
     28 CB         23.6832   -1.6766   -7.5831 C.3       3 UNK        -0.1990 
     29 N          25.2703   -3.3123   -6.6396 N.am      3 UNK        -0.4232 
     30 C          25.2861   -4.4874   -7.2728 C.2       2 UNK         0.4993 
     31 O          24.2738   -5.0257   -7.7236 O.2       2 UNK        -0.5286 
     32 CA         26.6367   -5.2103   -7.4334 C.3       2 UNK         0.0209 
     33 CB         27.3131   -4.8347   -8.7651 C.3       2 UNK        -0.1931 
     34 N          27.5848   -5.0919   -6.3148 N.am      2 UNK        -0.4546 
     35 C          28.2349   -4.0189   -5.8398 C.2       1 UNK         0.5154 
     36 O          28.0461   -2.8677   -6.2369 O.2       1 UNK        -0.5181 
     37 C          27.4522    2.1778   -5.1181 C.2       5 UNK         0.5014 
     38 O          27.6047    1.4306   -6.0887 O.2       5 UNK        -0.5248 
     39 N          27.4565    3.5162   -5.2079 N.am      6 UNK        -0.4434 
     40 CA         27.6634    4.3110   -6.4224 C.3       6 UNK         0.0363 
     41 CB         27.7207    5.7988   -6.0392 C.3       6 UNK        -0.1936 
     42 C          26.6291    4.0810   -7.5423 C.2       6 UNK         0.5081 
     43 O          26.8797    4.5018   -8.6716 O.2       6 UNK        -0.5248 
     44 N          25.5116    3.4003   -7.2400 N.am      7 UNK        -0.4718 
     45 CA         24.5347    2.9188   -8.2231 C.3       7 UNK         0.0273 
     46 CB         23.3370    2.2965   -7.4888 C.3       7 UNK        -0.1935 
     47 C          25.1244    1.9155   -9.2354 C.2       7 UNK         0.5018 
     48 O          24.6259    1.8445  -10.3594 O.2       7 UNK        -0.5186 
     49 N          26.1744    1.1849   -8.8323 N.am      8 UNK        -0.4240 
     50 CA         26.9844    0.3381   -9.7120 C.3       8 UNK         0.0235 
     51 CB         26.8145   -1.1407   -9.3333 C.3       8 UNK        -0.2000 
     52 C          28.4674    0.7303   -9.6707 C.2       8 UNK         0.4941 
     53 O          29.1284    0.6494  -10.7061 O.2       8 UNK        -0.5273 
     54 N          28.9681    1.1303   -8.4897 N.am      9 UNK        -0.4262 
     55 CA         30.3558    1.5126   -8.1971 C.3       9 UNK         0.0264 
     56 CB         30.7490    2.7976   -8.9569 C.3       9 UNK        -0.1955 
     57 C          31.3716    0.3689   -8.3976 C.2       9 UNK         0.5031 
     58 O          32.5554    0.6335   -8.6189 O.2       9 UNK        -0.5390 
     59 N          30.9158   -0.8871   -8.2818 N.am      10 UNK        -0.4204 
     60 CA         31.7268   -2.1017   -8.4114 C.3       10 UNK         0.0237 
     61 CB         30.8186   -3.2622   -8.8603 C.3       10 UNK        -0.1985 
     62 C          32.4851   -2.4123   -7.1067 C.2       10 UNK         0.4970 
     63 O          32.3684   -3.5159   -6.5728 O.2       10 UNK        -0.4914 
     64 N          33.2194   -1.4179   -6.5984 N.am      11 UNK        -0.4285 
     65 CA         33.9003   -1.4407   -5.2958 C.3       11 UNK         0.1007 
     66 C          35.1235   -2.4000   -5.2004 C.2       11 UNK         0.5703 
     67 N          35.6320   -2.9471   -6.2983 N.am      11 UNK        -0.7361 
     68 O          35.6198   -2.6530   -4.1054 O.2       11 UNK        -0.4986 
     69 C69        34.2833   -0.0100   -4.8288 C.3       12 UNK        -0.0947 
     70 S70        32.8888    1.1762   -4.8311 S.3       12 UNK        -0.2240 
     71 C71        32.8104    1.7075   -3.0869 C.3       12 UNK         0.0194 
     72 H72        32.0140   -7.8263   -5.6163 H         1 UNK         0.0906 
     73 H73        31.2573   -7.5696   -7.1919 H         1 UNK         0.0906 
     74 H74        32.3259   -6.3391   -6.5142 H         1 UNK         0.0906 
     75 H75        31.1784   -4.5846   -5.7531 H         1 UNK         0.3140 
     76 H76        28.8510   -4.9040   -3.9967 H         1 UNK         0.1085 
     77 H77        30.3419   -2.3751   -4.8737 H         1 UNK         0.0836 
     78 H78        29.0991   -2.4618   -3.6528 H         1 UNK         0.0836 
     79 H79        29.5776   -2.8902   -1.1800 H         1 UNK         0.0731 
     80 H80        31.2080   -2.8605   -0.5510 H         1 UNK         0.0731 
     81 H81        32.4614   -0.9613   -2.6626 H         1 UNK         0.1312 
     82 H82        30.7302    2.8410   -1.7373 H         1 UNK         0.1406 
     83 H83        28.8819   -0.7507   -0.3084 H         1 UNK         0.1631 
     84 H84        28.9460    3.0077   -0.1580 H         1 UNK         0.0717 
     85 H85        28.6150    1.6176    0.8418 H         1 UNK         0.0717 
     86 H86        26.4706    3.3562   -2.6625 H         1 UNK         0.0934 
     87 H87        28.1995    3.1239   -2.5607 H         1 UNK         0.0934 
     88 H88        27.9760    0.8324   -3.5673 H         1 UNK         0.0739 
     89 H89        26.0027   -0.1888   -3.6062 H         1 UNK         0.3093 
     90 H90        23.6998   -0.2218   -2.8616 H         1 UNK         0.0818 
     91 H91        21.3687    0.3302   -3.4776 H         1 UNK         0.0819 
     92 H92        22.1851    1.7658   -2.8836 H         1 UNK         0.0819 
     93 H93        21.9225    1.5649   -4.6094 H         1 UNK         0.0819 
     94 H94        22.7040   -0.5452   -5.5385 H         1 UNK         0.3041 
     95 H95        23.2591   -3.1942   -6.1027 H         1 UNK         0.0784 
     96 H96        22.6969   -1.2280   -7.4625 H         1 UNK         0.0793 
     97 H97        24.3917   -0.8677   -7.7589 H         1 UNK         0.0793 
     98 H98        23.6393   -2.2855   -8.4862 H         1 UNK         0.0793 
     99 H99        26.1477   -2.9471   -6.2733 H         1 UNK         0.3024 
    100 H100       26.3933   -6.2730   -7.4888 H         1 UNK         0.1171 
    101 H101       27.6573   -3.8025   -8.7650 H         1 UNK         0.0786 
    102 H102       26.6245   -4.9495   -9.6033 H         1 UNK         0.0786 
    103 H103       28.1751   -5.4718   -8.9635 H         1 UNK         0.0786 
    104 H104       27.8685   -5.9795   -5.9098 H         1 UNK         0.2977 
    105 H105       27.2662    4.0442   -4.3691 H         1 UNK         0.3127 
    106 H106       28.6355    4.0269   -6.8294 H         1 UNK         0.0770 
    107 H107       26.7810    6.1387   -5.6020 H         1 UNK         0.0814 
    108 H108       27.9162    6.4212   -6.9137 H         1 UNK         0.0814 
    109 H109       28.5181    5.9957   -5.3223 H         1 UNK         0.0814 
    110 H110       25.3599    3.1234   -6.2763 H         1 UNK         0.2983 
    111 H111       24.1813    3.7832   -8.7893 H         1 UNK         0.0947 
    112 H112       22.5734    1.9664   -8.1944 H         1 UNK         0.0806 
    113 H113       22.8681    3.0127   -6.8138 H         1 UNK         0.0806 
    114 H114       23.6355    1.4292   -6.9010 H         1 UNK         0.0806 
    115 H115       26.5103    1.3210   -7.8856 H         1 UNK         0.3000 
    116 H116       26.6646    0.4563  -10.7497 H         1 UNK         0.0850 
    117 H117       27.4987   -1.7666   -9.9074 H         1 UNK         0.0810 
    118 H118       27.0119   -1.3165   -8.2751 H         1 UNK         0.0810 
    119 H119       25.8073   -1.4905   -9.5549 H         1 UNK         0.0810 
    120 H120       28.3610    1.1377   -7.6709 H         1 UNK         0.3040 
    121 H121       30.3796    1.7444   -7.1311 H         1 UNK         0.0766 
    122 H122       30.0110    3.5871   -8.8172 H         1 UNK         0.0812 
    123 H123       30.8481    2.6190  -10.0280 H         1 UNK         0.0812 
    124 H124       31.7062    3.1824   -8.6032 H         1 UNK         0.0812 
    125 H125       29.9422   -1.0185   -8.0481 H         1 UNK         0.3205 
    126 H126       32.4758   -1.9463   -9.1907 H         1 UNK         0.0754 
    127 H127       31.3967   -4.1729   -9.0227 H         1 UNK         0.0769 
    128 H128       30.3110   -3.0306   -9.7969 H         1 UNK         0.0769 
    129 H129       30.0577   -3.4891   -8.1144 H         1 UNK         0.0769 
    130 H130       33.2559   -0.5438   -7.1116 H         1 UNK         0.2981 
    131 H131       33.1748   -1.8350   -4.5847 H         1 UNK         0.0541 
    132 H132       36.4215   -3.5684   -6.2209 H         1 UNK         0.3459 
    133 H133       35.2285   -2.7506   -7.1997 H         1 UNK         0.3459 
    134 H134       35.0592    0.3984   -5.4787 H         1 UNK         0.0612 
    135 H135       34.7218   -0.0500   -3.8307 H         1 UNK         0.0612 
    136 H136       32.6514    2.7868   -3.0805 H         1 UNK         0.0624 
    137 H137       33.7644    1.5457   -2.5847 H         1 UNK         0.0624 
@<TRIPOS>BOND
     1    1    2 1    
     2    1   72 1    
     3    1   73 1    
     4    1   74 1    
     5    2    3 2    
     6    2    4 am   BACKBONE|DICT|INTERRES
     7    4    5 1    
     8    4   75 1    
     9    5    6 1    
    10    5   35 1    
    11    5   76 1    
    12    6    7 1    
    13    6   77 1    
    14    6   78 1    
    15    7    8 1    
    16    8    9 1    
    17    8   79 1    
    18    8   80 1    
    19    9   10 ar   
    20    9   14 ar   
    21   10   11 ar   
    22   10   81 1    
    23   11   12 ar   
    24   11   71 1    
    25   12   13 ar   
    26   12   82 1    
    27   13   14 ar   
    28   13   15 1    
    29   14   83 1    
    30   15   16 1    
    31   15   84 1    
    32   15   85 1    
    33   16   17 1    
    34   17   18 1    
    35   17   86 1    
    36   17   87 1    
    37   18   19 1    
    38   18   37 1    
    39   18   88 1    
    40   19   20 am   BACKBONE|DICT|INTERRES
    41   19   89 1    
    42   20   21 2    
    43   20   22 1    
    44   22   23 1    
    45   22   24 1    
    46   22   90 1    
    47   23   91 1    
    48   23   92 1    
    49   23   93 1    
    50   24   25 am   BACKBONE|DICT|INTERRES
    51   24   94 1    
    52   25   26 2    
    53   25   27 1    
    54   27   28 1    
    55   27   29 1    
    56   27   95 1    
    57   28   96 1    
    58   28   97 1    
    59   28   98 1    
    60   29   30 am   BACKBONE|DICT|INTERRES
    61   29   99 1    
    62   30   31 2    
    63   30   32 1    
    64   32   33 1    
    65   32   34 1    
    66   32  100 1    
    67   33  101 1    
    68   33  102 1    
    69   33  103 1    
    70   34   35 am   BACKBONE|DICT|INTERRES
    71   34  104 1    
    72   35   36 2    
    73   37   38 2    
    74   37   39 am   BACKBONE|DICT|INTERRES
    75   39   40 1    
    76   39  105 1    
    77   40   41 1    
    78   40   42 1    
    79   40  106 1    
    80   41  107 1    
    81   41  108 1    
    82   41  109 1    
    83   42   43 2    
    84   42   44 am   BACKBONE|DICT|INTERRES
    85   44   45 1    
    86   44  110 1    
    87   45   46 1    
    88   45   47 1    
    89   45  111 1    
    90   46  112 1    
    91   46  113 1    
    92   46  114 1    
    93   47   48 2    
    94   47   49 am   BACKBONE|DICT|INTERRES
    95   49   50 1    
    96   49  115 1    
    97   50   51 1    
    98   50   52 1    
    99   50  116 1    
   100   51  117 1    
   101   51  118 1    
   102   51  119 1    
   103   52   53 2    
   104   52   54 am   BACKBONE|DICT|INTERRES
   105   54   55 1    
   106   54  120 1    
   107   55   56 1    
   108   55   57 1    
   109   55  121 1    
   110   56  122 1    
   111   56  123 1    
   112   56  124 1    
   113   57   58 2    
   114   57   59 am   BACKBONE|DICT|INTERRES
   115   59   60 1    
   116   59  125 1    
   117   60   61 1    
   118   60   62 1    
   119   60  126 1    
   120   61  127 1    
   121   61  128 1    
   122   61  129 1    
   123   62   63 2    
   124   62   64 am   BACKBONE|DICT|INTERRES
   125   64   65 1    
   126   64  130 1    
   127   65   66 1    
   128   65   69 1    
   129   65  131 1    
   130   66   67 am   BACKBONE|DICT|INTERRES
   131   66   68 2    
   132   67  132 1    
   133   67  133 1    
   134   69   70 1    
   135   69  134 1    
   136   69  135 1    
   137   70   71 1    
   138   71  136 1    
   139   71  137 1    
@<TRIPOS>SUBSTRUCTURE
     1 UNK         1 GROUP             0       ****    0 ROOT    
