@<TRIPOS>MOLECULE
3R137
137   139    1
SMALL
USER_CHARGES


@<TRIPOS>ATOM
      1 CA         29.9136   -7.0291   -7.4995 C.3       0 UNK        -0.2020 
      2 C          29.0748   -5.9341   -6.8586 C.2       0 UNK         0.4855 
      3 O          28.7300   -4.9578   -7.5252 O.2       0 UNK        -0.5197 
      4 N          28.7213   -6.1061   -5.5767 N.am      1 UNK        -0.4892 
      5 CA         27.9460   -5.1985   -4.7069 C.3       1 UNK         0.0835 
      6 C6         28.5657   -3.7826   -4.5395 C.3       12 UNK        -0.0855 
      7 S7         30.3301   -3.8511   -4.0686 S.3       12 UNK        -0.2931 
      8 C8         30.2929   -3.5134   -2.2756 C.3       12 UNK         0.0378 
      9 C9         30.5507   -2.0498   -1.9271 C.ar      12 UNK        -0.0802 
     10 C10        31.5910   -1.3421   -2.5418 C.ar      12 UNK        -0.0944 
     11 C11        31.8617   -0.0177   -2.1887 C.ar      12 UNK        -0.0787 
     12 C12        31.0952    0.5975   -1.1968 C.ar      12 UNK        -0.0862 
     13 C13        30.0543   -0.0948   -0.5705 C.ar      12 UNK        -0.0733 
     14 C14        29.7875   -1.4183   -0.9383 C.ar      12 UNK        -0.0832 
     15 C15        29.2225    0.5927    0.5049 C.3       12 UNK         0.0240 
     16 S16        27.5616    1.0535   -0.0885 S.3       12 UNK        -0.2522 
     17 C17        27.9475    2.0649   -1.5584 C.3       12 UNK        -0.0967 
     18 CA         27.7528    1.2383   -2.8608 C.3       5 UNK         0.0660 
     19 N          26.3554    0.8544   -3.0794 N.am      5 UNK        -0.4015 
     20 C          25.3358    1.6548   -3.4127 C.2       4 UNK         0.4946 
     21 O          25.4587    2.8476   -3.7022 O.2       4 UNK        -0.5353 
     22 CA         23.9393    1.0031   -3.4124 C.3       4 UNK         0.0277 
     23 CB         22.8189    2.0481   -3.2534 C.3       4 UNK        -0.1981 
     24 N          23.6684    0.2063   -4.6104 N.am      4 UNK        -0.4209 
     25 C          24.2940   -0.9210   -4.9716 C.2       3 UNK         0.4942 
     26 O          25.2302   -1.4274   -4.3456 O.2       3 UNK        -0.5208 
     27 CA         23.7577   -1.6065   -6.2342 C.3       3 UNK         0.0250 
     28 CB         23.9245   -0.7318   -7.4906 C.3       3 UNK        -0.1990 
     29 N          24.4589   -2.8726   -6.4218 N.am      3 UNK        -0.4232 
     30 C          23.9172   -3.9986   -6.8941 C.2       2 UNK         0.4993 
     31 O          22.7474   -4.0827   -7.2723 O.2       2 UNK        -0.5286 
     32 CA         24.8168   -5.2447   -6.9812 C.3       2 UNK         0.0209 
     33 CB         24.9931   -5.6811   -8.4463 C.3       2 UNK        -0.1931 
     34 N          26.1481   -5.0879   -6.3872 N.am      2 UNK        -0.4546 
     35 C          26.4470   -5.1379   -5.0835 C.2       1 UNK         0.5154 
     36 O          25.5945   -5.1954   -4.1970 O.2       1 UNK        -0.5181 
     37 C          28.3380    1.8893   -4.1262 C.2       5 UNK         0.5014 
     38 O          28.5051    1.1865   -5.1216 O.2       5 UNK        -0.5248 
     39 N          28.5871    3.2077   -4.0946 N.am      6 UNK        -0.4434 
     40 CA         29.1220    4.0156   -5.1982 C.3       6 UNK         0.0363 
     41 CB         29.2839    5.4669   -4.7184 C.3       6 UNK        -0.1936 
     42 C          28.3025    3.9686   -6.5039 C.2       6 UNK         0.5081 
     43 O          28.8397    4.3071   -7.5585 O.2       6 UNK        -0.5248 
     44 N          27.0322    3.5476   -6.4250 N.am      7 UNK        -0.4718 
     45 CA         26.1779    3.2737   -7.5808 C.3       7 UNK         0.0273 
     46 CB         24.7228    3.1390   -7.1034 C.3       7 UNK        -0.1935 
     47 C          26.5956    2.0213   -8.3787 C.2       7 UNK         0.5018 
     48 O          26.2258    1.9203   -9.5495 O.2       7 UNK        -0.5186 
     49 N          27.3201    1.0823   -7.7512 N.am      8 UNK        -0.4240 
     50 CA         27.7737   -0.1579   -8.3797 C.3       8 UNK         0.0235 
     51 CB         27.9488   -1.2398   -7.3023 C.3       8 UNK        -0.2000 
     52 C          29.0984    0.0605   -9.1190 C.2       8 UNK         0.4941 
     53 O          29.9824    0.7515   -8.6067 O.2       8 UNK        -0.5273 
     54 N          29.2480   -0.6018  -10.2743 N.am      9 UNK        -0.4262 
     55 CA         30.4529   -0.5692  -11.1142 C.3       9 UNK         0.0264 
     56 CB         30.1674   -1.2980  -12.4375 C.3       9 UNK        -0.1955 
     57 C          31.7106   -1.1508  -10.4398 C.2       9 UNK         0.5031 
     58 O          32.8221   -0.7885  -10.8272 O.2       9 UNK        -0.5390 
     59 N          31.5183   -2.0214   -9.4386 N.am      10 UNK        -0.4204 
     60 CA         32.5766   -2.5629   -8.5840 C.3       10 UNK         0.0237 
     61 CB         32.0138   -3.7453   -7.7803 C.3       10 UNK        -0.1985 
     62 C          33.1921   -1.5160   -7.6363 C.2       10 UNK         0.4970 
     63 O          34.3487   -1.6781   -7.2456 O.2       10 UNK        -0.4914 
     64 N          32.4215   -0.4788   -7.2855 N.am      11 UNK        -0.4285 
     65 CA         32.8556    0.6512   -6.4581 C.3       11 UNK         0.1007 
     66 C          33.2146    1.8816   -7.3332 C.2       11 UNK         0.5703 
     67 N          32.4045    2.2270   -8.3271 N.am      11 UNK        -0.7361 
     68 O          34.2470    2.5141   -7.1239 O.2       11 UNK        -0.4986 
     69 C69        31.7771    0.9829   -5.3984 C.3       12 UNK        -0.0947 
     70 S70        32.3983    2.0059   -4.0221 S.3       12 UNK        -0.2240 
     71 C71        32.9988    0.7416   -2.8574 C.3       12 UNK         0.0194 
     72 H72        29.5370   -7.2571   -8.4964 H         1 UNK         0.0906 
     73 H73        30.9493   -6.7047   -7.5913 H         1 UNK         0.0906 
     74 H74        29.8954   -7.9486   -6.9147 H         1 UNK         0.0906 
     75 H75        29.0260   -6.9517   -5.1140 H         1 UNK         0.3140 
     76 H76        27.9753   -5.6676   -3.7217 H         1 UNK         0.1085 
     77 H77        28.0121   -3.1979   -3.8018 H         1 UNK         0.0836 
     78 H78        28.4970   -3.2271   -5.4736 H         1 UNK         0.0836 
     79 H79        29.3454   -3.8579   -1.8585 H         1 UNK         0.0731 
     80 H80        31.0696   -4.1136   -1.8002 H         1 UNK         0.0731 
     81 H81        32.1963   -1.8259   -3.2961 H         1 UNK         0.1312 
     82 H82        31.3101    1.6203   -0.9182 H         1 UNK         0.1406 
     83 H83        28.9868   -1.9549   -0.4472 H         1 UNK         0.1631 
     84 H84        29.7289    1.4866    0.8725 H         1 UNK         0.0717 
     85 H85        29.1190   -0.0720    1.3637 H         1 UNK         0.0717 
     86 H86        27.2982    2.9421   -1.5485 H         1 UNK         0.0934 
     87 H87        28.9682    2.4404   -1.4717 H         1 UNK         0.0934 
     88 H88        28.3033    0.3032   -2.7519 H         1 UNK         0.0739 
     89 H89        26.1588   -0.1387   -3.0234 H         1 UNK         0.3093 
     90 H90        23.8913    0.3365   -2.5484 H         1 UNK         0.0818 
     91 H91        21.8437    1.5736   -3.1434 H         1 UNK         0.0819 
     92 H92        22.9806    2.6605   -2.3652 H         1 UNK         0.0819 
     93 H93        22.7704    2.7237   -4.1087 H         1 UNK         0.0819 
     94 H94        22.9169    0.5401   -5.1961 H         1 UNK         0.3041 
     95 H95        22.6953   -1.7990   -6.0688 H         1 UNK         0.0784 
     96 H96        23.5596   -1.2455   -8.3802 H         1 UNK         0.0793 
     97 H97        23.3649    0.2002   -7.4097 H         1 UNK         0.0793 
     98 H98        24.9672   -0.4737   -7.6629 H         1 UNK         0.0793 
     99 H99        25.3910   -2.9054   -6.0307 H         1 UNK         0.3024 
    100 H100       24.2975   -6.0431   -6.4462 H         1 UNK         0.1171 
    101 H101       25.5143   -4.9220   -9.0313 H         1 UNK         0.0786 
    102 H102       24.0286   -5.8576   -8.9247 H         1 UNK         0.0786 
    103 H103       25.5616   -6.6086   -8.5184 H         1 UNK         0.0786 
    104 H104       26.9367   -5.0227   -7.0279 H         1 UNK         0.2977 
    105 H105       28.3577    3.7122   -3.2514 H         1 UNK         0.3127 
    106 H106       30.1134    3.6273   -5.4349 H         1 UNK         0.0770 
    107 H107       28.3269    5.9065   -4.4345 H         1 UNK         0.0814 
    108 H108       29.7095    6.0929   -5.5041 H         1 UNK         0.0814 
    109 H109       29.9539    5.5302   -3.8607 H         1 UNK         0.0814 
    110 H110       26.6583    3.3099   -5.5126 H         1 UNK         0.2983 
    111 H111       26.2392    4.1273   -8.2595 H         1 UNK         0.0947 
    112 H112       24.0480    2.9742   -7.9446 H         1 UNK         0.0806 
    113 H113       24.3872    4.0400   -6.5896 H         1 UNK         0.0806 
    114 H114       24.6026    2.2997   -6.4188 H         1 UNK         0.0806 
    115 H115       27.6654    1.2573   -6.8095 H         1 UNK         0.3000 
    116 H116       27.0149   -0.4979   -9.0880 H         1 UNK         0.0850 
    117 H117       28.7723   -1.0055   -6.6257 H         1 UNK         0.0810 
    118 H118       27.0501   -1.3535   -6.6975 H         1 UNK         0.0810 
    119 H119       28.1634   -2.2095   -7.7532 H         1 UNK         0.0810 
    120 H120       28.4787   -1.1599  -10.6171 H         1 UNK         0.3040 
    121 H121       30.6665    0.4779  -11.3395 H         1 UNK         0.0766 
    122 H122       29.3396   -0.8359  -12.9758 H         1 UNK         0.0812 
    123 H123       29.9210   -2.3482  -12.2762 H         1 UNK         0.0812 
    124 H124       31.0365   -1.2653  -13.0963 H         1 UNK         0.0812 
    125 H125       30.5704   -2.2827   -9.2100 H         1 UNK         0.3205 
    126 H126       33.3762   -2.9347   -9.2283 H         1 UNK         0.0754 
    127 H127       32.7835   -4.1961   -7.1522 H         1 UNK         0.0769 
    128 H128       31.6366   -4.5251   -8.4415 H         1 UNK         0.0769 
    129 H129       31.1978   -3.4375   -7.1244 H         1 UNK         0.0769 
    130 H130       31.5062   -0.3765   -7.7062 H         1 UNK         0.2981 
    131 H131       33.7615    0.3653   -5.9202 H         1 UNK         0.0541 
    132 H132       32.6378    3.0192   -8.9027 H         1 UNK         0.3459 
    133 H133       31.5279    1.7314   -8.4755 H         1 UNK         0.3459 
    134 H134       31.3554    0.0665   -4.9843 H         1 UNK         0.0612 
    135 H135       30.9403    1.4979   -5.8695 H         1 UNK         0.0612 
    136 H136       33.6699    0.0584   -3.3803 H         1 UNK         0.0624 
    137 H137       33.6005    1.2317   -2.0907 H         1 UNK         0.0624 
@<TRIPOS>BOND
     1    1    2 1    
     2    1   72 1    
     3    1   73 1    
     4    1   74 1    
     5    2    3 2    
     6    2    4 am   BACKBONE|DICT|INTERRES
     7    4    5 1    
     8    4   75 1    
     9    5    6 1    
    10    5   35 1    
    11    5   76 1    
    12    6    7 1    
    13    6   77 1    
    14    6   78 1    
    15    7    8 1    
    16    8    9 1    
    17    8   79 1    
    18    8   80 1    
    19    9   10 ar   
    20    9   14 ar   
    21   10   11 ar   
    22   10   81 1    
    23   11   12 ar   
    24   11   71 1    
    25   12   13 ar   
    26   12   82 1    
    27   13   14 ar   
    28   13   15 1    
    29   14   83 1    
    30   15   16 1    
    31   15   84 1    
    32   15   85 1    
    33   16   17 1    
    34   17   18 1    
    35   17   86 1    
    36   17   87 1    
    37   18   19 1    
    38   18   37 1    
    39   18   88 1    
    40   19   20 am   BACKBONE|DICT|INTERRES
    41   19   89 1    
    42   20   21 2    
    43   20   22 1    
    44   22   23 1    
    45   22   24 1    
    46   22   90 1    
    47   23   91 1    
    48   23   92 1    
    49   23   93 1    
    50   24   25 am   BACKBONE|DICT|INTERRES
    51   24   94 1    
    52   25   26 2    
    53   25   27 1    
    54   27   28 1    
    55   27   29 1    
    56   27   95 1    
    57   28   96 1    
    58   28   97 1    
    59   28   98 1    
    60   29   30 am   BACKBONE|DICT|INTERRES
    61   29   99 1    
    62   30   31 2    
    63   30   32 1    
    64   32   33 1    
    65   32   34 1    
    66   32  100 1    
    67   33  101 1    
    68   33  102 1    
    69   33  103 1    
    70   34   35 am   BACKBONE|DICT|INTERRES
    71   34  104 1    
    72   35   36 2    
    73   37   38 2    
    74   37   39 am   BACKBONE|DICT|INTERRES
    75   39   40 1    
    76   39  105 1    
    77   40   41 1    
    78   40   42 1    
    79   40  106 1    
    80   41  107 1    
    81   41  108 1    
    82   41  109 1    
    83   42   43 2    
    84   42   44 am   BACKBONE|DICT|INTERRES
    85   44   45 1    
    86   44  110 1    
    87   45   46 1    
    88   45   47 1    
    89   45  111 1    
    90   46  112 1    
    91   46  113 1    
    92   46  114 1    
    93   47   48 2    
    94   47   49 am   BACKBONE|DICT|INTERRES
    95   49   50 1    
    96   49  115 1    
    97   50   51 1    
    98   50   52 1    
    99   50  116 1    
   100   51  117 1    
   101   51  118 1    
   102   51  119 1    
   103   52   53 2    
   104   52   54 am   BACKBONE|DICT|INTERRES
   105   54   55 1    
   106   54  120 1    
   107   55   56 1    
   108   55   57 1    
   109   55  121 1    
   110   56  122 1    
   111   56  123 1    
   112   56  124 1    
   113   57   58 2    
   114   57   59 am   BACKBONE|DICT|INTERRES
   115   59   60 1    
   116   59  125 1    
   117   60   61 1    
   118   60   62 1    
   119   60  126 1    
   120   61  127 1    
   121   61  128 1    
   122   61  129 1    
   123   62   63 2    
   124   62   64 am   BACKBONE|DICT|INTERRES
   125   64   65 1    
   126   64  130 1    
   127   65   66 1    
   128   65   69 1    
   129   65  131 1    
   130   66   67 am   BACKBONE|DICT|INTERRES
   131   66   68 2    
   132   67  132 1    
   133   67  133 1    
   134   69   70 1    
   135   69  134 1    
   136   69  135 1    
   137   70   71 1    
   138   71  136 1    
   139   71  137 1    
@<TRIPOS>SUBSTRUCTURE
     1 UNK         1 GROUP             0       ****    0 ROOT    
