@<TRIPOS>MOLECULE
3R137
137   139    1
SMALL
USER_CHARGES


@<TRIPOS>ATOM
      1 CA         29.1112   -1.9041    3.2673 C.3       0 UNK        -0.2020 
      2 C          28.5864   -1.9519    1.8400 C.2       0 UNK         0.4855 
      3 O          28.3700   -0.9034    1.2315 O.2       0 UNK        -0.5197 
      4 N          28.3899   -3.1594    1.2975 N.am      1 UNK        -0.4892 
      5 CA         27.8483   -3.3928   -0.0453 C.3       1 UNK         0.0835 
      6 C6         28.1026   -4.8425   -0.5336 C.3       12 UNK        -0.0855 
      7 S7         29.8643   -5.3233   -0.4919 S.3       12 UNK        -0.2931 
      8 C8         30.2376   -5.6002   -2.2611 C.3       12 UNK         0.0378 
      9 C9         30.4378   -4.3460   -3.1169 C.ar      12 UNK        -0.0802 
     10 C10        30.5017   -4.4986   -4.5068 C.ar      12 UNK        -0.0944 
     11 C11        30.7430   -3.4006   -5.3369 C.ar      12 UNK        -0.0787 
     12 C12        30.9124   -2.1371   -4.7709 C.ar      12 UNK        -0.0862 
     13 C13        30.8143   -1.9532   -3.3892 C.ar      12 UNK        -0.0733 
     14 C14        30.6001   -3.0651   -2.5688 C.ar      12 UNK        -0.0832 
     15 C15        30.9514   -0.5672   -2.7614 C.3       12 UNK         0.0240 
     16 S16        30.2202    0.7857   -3.7511 S.3       12 UNK        -0.2522 
     17 C17        28.4929    0.2293   -3.9702 C.3       12 UNK        -0.0967 
     18 CA         28.1232    0.0101   -5.4612 C.3       5 UNK         0.0660 
     19 N          26.9470   -0.8496   -5.6134 N.am      5 UNK        -0.4015 
     20 C          26.5045   -1.3437   -6.7816 C.2       4 UNK         0.4946 
     21 O          27.0789   -1.1734   -7.8561 O.2       4 UNK        -0.5353 
     22 CA         25.1727   -2.1194   -6.7693 C.3       4 UNK         0.0277 
     23 CB         25.4363   -3.6183   -6.5556 C.3       4 UNK        -0.1981 
     24 N          24.2230   -1.6452   -5.7601 N.am      4 UNK        -0.4209 
     25 C          23.7808   -0.3849   -5.6338 C.2       3 UNK         0.4942 
     26 O          24.0159    0.5040   -6.4524 O.2       3 UNK        -0.5208 
     27 CA         23.0150   -0.0324   -4.3425 C.3       3 UNK         0.0250 
     28 CB         21.5048    0.0297   -4.6202 C.3       3 UNK        -0.1990 
     29 N          23.2632   -0.9299   -3.2020 N.am      3 UNK        -0.4232 
     30 C          24.4630   -1.2372   -2.6847 C.2       2 UNK         0.4993 
     31 O          25.5301   -0.8003   -3.1284 O.2       2 UNK        -0.5286 
     32 CA         24.4821   -2.2460   -1.5275 C.3       2 UNK         0.0209 
     33 CB         23.7101   -3.5382   -1.8727 C.3       2 UNK        -0.1931 
     34 N          25.8750   -2.5695   -1.2309 N.am      2 UNK        -0.4546 
     35 C          26.3387   -3.0811   -0.0882 C.2       1 UNK         0.5154 
     36 O          25.6247   -3.3481    0.8829 O.2       1 UNK        -0.5181 
     37 C          27.9411    1.3482   -6.2022 C.2       5 UNK         0.5014 
     38 O          28.8385    1.7606   -6.9387 O.2       5 UNK        -0.5248 
     39 N          26.7706    1.9773   -6.0237 N.am      6 UNK        -0.4434 
     40 CA         26.3907    3.2216   -6.6920 C.3       6 UNK         0.0363 
     41 CB         25.1563    3.8261   -6.0039 C.3       6 UNK        -0.1936 
     42 C          26.1385    3.0216   -8.1939 C.2       6 UNK         0.5081 
     43 O          26.5448    3.8705   -8.9862 O.2       6 UNK        -0.5248 
     44 N          25.5055    1.8974   -8.5611 N.am      7 UNK        -0.4718 
     45 CA         25.2373    1.5100   -9.9496 C.3       7 UNK         0.0273 
     46 CB         24.3139    0.2827   -9.9790 C.3       7 UNK        -0.1935 
     47 C          26.5202    1.2463  -10.7568 C.2       7 UNK         0.5018 
     48 O          26.6183    1.7005  -11.8973 O.2       7 UNK        -0.5186 
     49 N          27.4874    0.5454  -10.1470 N.am      8 UNK        -0.4240 
     50 CA         28.8152    0.3040  -10.7192 C.3       8 UNK         0.0235 
     51 CB         29.4760   -0.8736   -9.9835 C.3       8 UNK        -0.2000 
     52 C          29.7388    1.5339  -10.6613 C.2       8 UNK         0.4941 
     53 O          30.7299    1.5628  -11.3913 O.2       8 UNK        -0.5273 
     54 N          29.4217    2.4937   -9.7775 N.am      9 UNK        -0.4262 
     55 CA         30.2334    3.6491   -9.3764 C.3       9 UNK         0.0264 
     56 CB         30.4007    4.6460  -10.5429 C.3       9 UNK        -0.1955 
     57 C          31.5688    3.2018   -8.7483 C.2       9 UNK         0.5031 
     58 O          32.6255    3.7160   -9.1200 O.2       9 UNK        -0.5390 
     59 N          31.4653    2.2357   -7.8207 N.am      10 UNK        -0.4204 
     60 CA         32.5228    1.4375   -7.1910 C.3       10 UNK         0.0237 
     61 CB         33.5174    2.3140   -6.4036 C.3       10 UNK        -0.1985 
     62 C          33.2279    0.5261   -8.2137 C.2       10 UNK         0.4970 
     63 O          34.0386    0.9994   -9.0111 O.2       10 UNK        -0.4914 
     64 N          32.9069   -0.7737   -8.1669 N.am      11 UNK        -0.4285 
     65 CA         33.4642   -1.8140   -9.0504 C.3       11 UNK         0.1007 
     66 C          34.9887   -2.0995   -8.8865 C.2       11 UNK         0.5703 
     67 N          35.6401   -1.6580   -7.8167 N.am      11 UNK        -0.7361 
     68 O          35.5911   -2.7266   -9.7550 O.2       11 UNK        -0.4986 
     69 C69        32.6239   -3.1207   -8.9990 C.3       12 UNK        -0.0947 
     70 S70        32.5588   -3.8790   -7.3380 S.3       12 UNK        -0.2240 
     71 C71        30.8370   -3.5675   -6.8439 C.3       12 UNK         0.0194 
     72 H72        30.0583   -1.3663    3.3010 H         1 UNK         0.0906 
     73 H73        28.4011   -1.3851    3.9106 H         1 UNK         0.0906 
     74 H74        29.2732   -2.9014    3.6761 H         1 UNK         0.0906 
     75 H75        28.5741   -3.9903    1.8414 H         1 UNK         0.3140 
     76 H76        28.3494   -2.7051   -0.7290 H         1 UNK         0.1085 
     77 H77        27.5519   -5.5549    0.0843 H         1 UNK         0.0836 
     78 H78        27.7206   -4.9705   -1.5486 H         1 UNK         0.0836 
     79 H79        31.1531   -6.1907   -2.3174 H         1 UNK         0.0731 
     80 H80        29.4510   -6.2200   -2.6944 H         1 UNK         0.0731 
     81 H81        30.3863   -5.4807   -4.9454 H         1 UNK         0.1312 
     82 H82        31.1128   -1.2913   -5.4110 H         1 UNK         0.1406 
     83 H83        30.5736   -2.9223   -1.4984 H         1 UNK         0.1631 
     84 H84        32.0105   -0.3559   -2.6097 H         1 UNK         0.0717 
     85 H85        30.4872   -0.5516   -1.7738 H         1 UNK         0.0717 
     86 H86        28.3538   -0.6991   -3.4146 H         1 UNK         0.0934 
     87 H87        27.8238    0.9490   -3.4943 H         1 UNK         0.0934 
     88 H88        28.9447   -0.5148   -5.9505 H         1 UNK         0.0739 
     89 H89        26.3915   -0.9935   -4.7731 H         1 UNK         0.3093 
     90 H90        24.7029   -1.9905   -7.7449 H         1 UNK         0.0818 
     91 H91        24.5172   -4.1993   -6.6334 H         1 UNK         0.0819 
     92 H92        26.1249   -4.0035   -7.3093 H         1 UNK         0.0819 
     93 H93        25.8794   -3.8168   -5.5786 H         1 UNK         0.0819 
     94 H94        23.9632   -2.3045   -5.0419 H         1 UNK         0.3041 
     95 H95        23.3477    0.9637   -4.0435 H         1 UNK         0.0784 
     96 H96        21.2868    0.7093   -5.4457 H         1 UNK         0.0793 
     97 H97        21.1029   -0.9482   -4.8887 H         1 UNK         0.0793 
     98 H98        20.9549    0.3938   -3.7521 H         1 UNK         0.0793 
     99 H99        22.4429   -1.3405   -2.7791 H         1 UNK         0.3024 
    100 H100       24.0315   -1.7646   -0.6565 H         1 UNK         0.1171 
    101 H101       22.6511   -3.3431   -2.0435 H         1 UNK         0.0786 
    102 H102       23.7651   -4.2635   -1.0607 H         1 UNK         0.0786 
    103 H103       24.1067   -4.0167   -2.7692 H         1 UNK         0.0786 
    104 H104       26.5170   -2.2951   -1.9643 H         1 UNK         0.2977 
    105 H105       26.0647    1.5369   -5.4511 H         1 UNK         0.3127 
    106 H106       27.2178    3.9273   -6.5855 H         1 UNK         0.0770 
    107 H107       24.2898    3.1672   -6.0687 H         1 UNK         0.0814 
    108 H108       24.8787    4.7733   -6.4684 H         1 UNK         0.0814 
    109 H109       25.3477    4.0273   -4.9498 H         1 UNK         0.0814 
    110 H110       25.1469    1.2851   -7.8327 H         1 UNK         0.2983 
    111 H111       24.7123    2.3412  -10.4255 H         1 UNK         0.0947 
    112 H112       24.0139    0.0477  -11.0010 H         1 UNK         0.0806 
    113 H113       23.4038    0.4527   -9.4030 H         1 UNK         0.0806 
    114 H114       24.8080   -0.6006   -9.5762 H         1 UNK         0.0806 
    115 H115       27.3041    0.1368   -9.2327 H         1 UNK         0.3000 
    116 H116       28.6963    0.0294  -11.7696 H         1 UNK         0.0850 
    117 H117       29.6271   -0.6531   -8.9258 H         1 UNK         0.0810 
    118 H118       28.8707   -1.7776  -10.0536 H         1 UNK         0.0810 
    119 H119       30.4520   -1.1005  -10.4140 H         1 UNK         0.0810 
    120 H120       28.5918    2.3450   -9.2180 H         1 UNK         0.3040 
    121 H121       29.6748    4.1552   -8.5872 H         1 UNK         0.0766 
    122 H122       30.9037    5.5540  -10.2086 H         1 UNK         0.0812 
    123 H123       29.4342    4.9415  -10.9510 H         1 UNK         0.0812 
    124 H124       30.9951    4.2269  -11.3552 H         1 UNK         0.0812 
    125 H125       30.5151    1.9599   -7.5687 H         1 UNK         0.3205 
    126 H126       32.0158    0.8028   -6.4628 H         1 UNK         0.0754 
    127 H127       34.2327    1.6951   -5.8610 H         1 UNK         0.0769 
    128 H128       33.0018    2.9337   -5.6698 H         1 UNK         0.0769 
    129 H129       34.0914    2.9731   -7.0555 H         1 UNK         0.0769 
    130 H130       32.2649   -1.1034   -7.4644 H         1 UNK         0.2981 
    131 H131       33.3624   -1.4259  -10.0658 H         1 UNK         0.0541 
    132 H132       36.6260   -1.8460   -7.7272 H         1 UNK         0.3459 
    133 H133       35.1554   -1.1475   -7.0975 H         1 UNK         0.3459 
    134 H134       33.0265   -3.8604   -9.6933 H         1 UNK         0.0612 
    135 H135       31.6103   -2.9261   -9.3494 H         1 UNK         0.0612 
    136 H136       30.4548   -2.6706   -7.3339 H         1 UNK         0.0624 
    137 H137       30.2088   -4.3936   -7.1804 H         1 UNK         0.0624 
@<TRIPOS>BOND
     1    1    2 1    
     2    1   72 1    
     3    1   73 1    
     4    1   74 1    
     5    2    3 2    
     6    2    4 am   BACKBONE|DICT|INTERRES
     7    4    5 1    
     8    4   75 1    
     9    5    6 1    
    10    5   35 1    
    11    5   76 1    
    12    6    7 1    
    13    6   77 1    
    14    6   78 1    
    15    7    8 1    
    16    8    9 1    
    17    8   79 1    
    18    8   80 1    
    19    9   10 ar   
    20    9   14 ar   
    21   10   11 ar   
    22   10   81 1    
    23   11   12 ar   
    24   11   71 1    
    25   12   13 ar   
    26   12   82 1    
    27   13   14 ar   
    28   13   15 1    
    29   14   83 1    
    30   15   16 1    
    31   15   84 1    
    32   15   85 1    
    33   16   17 1    
    34   17   18 1    
    35   17   86 1    
    36   17   87 1    
    37   18   19 1    
    38   18   37 1    
    39   18   88 1    
    40   19   20 am   BACKBONE|DICT|INTERRES
    41   19   89 1    
    42   20   21 2    
    43   20   22 1    
    44   22   23 1    
    45   22   24 1    
    46   22   90 1    
    47   23   91 1    
    48   23   92 1    
    49   23   93 1    
    50   24   25 am   BACKBONE|DICT|INTERRES
    51   24   94 1    
    52   25   26 2    
    53   25   27 1    
    54   27   28 1    
    55   27   29 1    
    56   27   95 1    
    57   28   96 1    
    58   28   97 1    
    59   28   98 1    
    60   29   30 am   BACKBONE|DICT|INTERRES
    61   29   99 1    
    62   30   31 2    
    63   30   32 1    
    64   32   33 1    
    65   32   34 1    
    66   32  100 1    
    67   33  101 1    
    68   33  102 1    
    69   33  103 1    
    70   34   35 am   BACKBONE|DICT|INTERRES
    71   34  104 1    
    72   35   36 2    
    73   37   38 2    
    74   37   39 am   BACKBONE|DICT|INTERRES
    75   39   40 1    
    76   39  105 1    
    77   40   41 1    
    78   40   42 1    
    79   40  106 1    
    80   41  107 1    
    81   41  108 1    
    82   41  109 1    
    83   42   43 2    
    84   42   44 am   BACKBONE|DICT|INTERRES
    85   44   45 1    
    86   44  110 1    
    87   45   46 1    
    88   45   47 1    
    89   45  111 1    
    90   46  112 1    
    91   46  113 1    
    92   46  114 1    
    93   47   48 2    
    94   47   49 am   BACKBONE|DICT|INTERRES
    95   49   50 1    
    96   49  115 1    
    97   50   51 1    
    98   50   52 1    
    99   50  116 1    
   100   51  117 1    
   101   51  118 1    
   102   51  119 1    
   103   52   53 2    
   104   52   54 am   BACKBONE|DICT|INTERRES
   105   54   55 1    
   106   54  120 1    
   107   55   56 1    
   108   55   57 1    
   109   55  121 1    
   110   56  122 1    
   111   56  123 1    
   112   56  124 1    
   113   57   58 2    
   114   57   59 am   BACKBONE|DICT|INTERRES
   115   59   60 1    
   116   59  125 1    
   117   60   61 1    
   118   60   62 1    
   119   60  126 1    
   120   61  127 1    
   121   61  128 1    
   122   61  129 1    
   123   62   63 2    
   124   62   64 am   BACKBONE|DICT|INTERRES
   125   64   65 1    
   126   64  130 1    
   127   65   66 1    
   128   65   69 1    
   129   65  131 1    
   130   66   67 am   BACKBONE|DICT|INTERRES
   131   66   68 2    
   132   67  132 1    
   133   67  133 1    
   134   69   70 1    
   135   69  134 1    
   136   69  135 1    
   137   70   71 1    
   138   71  136 1    
   139   71  137 1    
@<TRIPOS>SUBSTRUCTURE
     1 UNK         1 GROUP             0       ****    0 ROOT    
