@<TRIPOS>MOLECULE
3R137
137   139    1
SMALL
USER_CHARGES


@<TRIPOS>ATOM
      1 CA         28.9068   -5.0822   -3.5595 C.3       0 UNK        -0.2020 
      2 C          27.7216   -4.2664   -3.0687 C.2       0 UNK         0.4855 
      3 O          26.5769   -4.6761   -3.2606 O.2       0 UNK        -0.5197 
      4 N          27.9888   -3.1132   -2.4417 N.am      1 UNK        -0.4892 
      5 CA         27.0106   -2.1653   -1.8961 C.3       1 UNK         0.0835 
      6 C6         27.7165   -0.9763   -1.2030 C.3       12 UNK        -0.0855 
      7 S7         28.5185   -1.4156    0.3817 S.3       12 UNK        -0.2931 
      8 C8         30.0801   -2.2583   -0.0777 C.3       12 UNK         0.0378 
      9 C9         30.9208   -1.5585   -1.1446 C.ar      12 UNK        -0.0802 
     10 C10        31.6696   -2.3270   -2.0413 C.ar      12 UNK        -0.0944 
     11 C11        32.4380   -1.7207   -3.0430 C.ar      12 UNK        -0.0787 
     12 C12        32.4522   -0.3241   -3.1405 C.ar      12 UNK        -0.0862 
     13 C13        31.7316    0.4577   -2.2326 C.ar      12 UNK        -0.0733 
     14 C14        30.9874   -0.1646   -1.2280 C.ar      12 UNK        -0.0832 
     15 C15        31.7707    1.9763   -2.2979 C.3       12 UNK         0.0240 
     16 S16        30.1531    2.6690   -2.7693 S.3       12 UNK        -0.2522 
     17 C17        30.3367    2.9350   -4.5678 C.3       12 UNK        -0.0967 
     18 CA         29.1684    2.3899   -5.4260 C.3       5 UNK         0.0660 
     19 N          29.1339    0.9257   -5.4579 N.am      5 UNK        -0.4015 
     20 C          28.3922    0.1923   -6.2998 C.2       4 UNK         0.4946 
     21 O          27.5121    0.6687   -7.0220 O.2       4 UNK        -0.5353 
     22 CA         28.7143   -1.3062   -6.3990 C.3       4 UNK         0.0277 
     23 CB         29.7321   -1.8084   -5.3589 C.3       4 UNK        -0.1981 
     24 N          27.4840   -2.0829   -6.2887 N.am      4 UNK        -0.4209 
     25 C          27.1283   -3.0914   -7.0974 C.2       3 UNK         0.4942 
     26 O          27.7988   -3.4498   -8.0663 O.2       3 UNK        -0.5208 
     27 CA         25.8290   -3.8595   -6.7773 C.3       3 UNK         0.0250 
     28 CB         26.0928   -5.3720   -6.6666 C.3       3 UNK        -0.1990 
     29 N          25.1959   -3.4011   -5.5389 N.am      3 UNK        -0.4232 
     30 C          24.2457   -2.4588   -5.4746 C.2       2 UNK         0.4993 
     31 O          23.7057   -1.9700   -6.4649 O.2       2 UNK        -0.5286 
     32 CA         23.8336   -1.9557   -4.0784 C.3       2 UNK         0.0209 
     33 CB         22.5021   -2.5922   -3.6485 C.3       2 UNK        -0.1931 
     34 N          24.8382   -2.1947   -3.0359 N.am      2 UNK        -0.4546 
     35 C          26.0669   -1.6600   -3.0052 C.2       1 UNK         0.5154 
     36 O          26.4828   -0.8477   -3.8352 O.2       1 UNK        -0.5181 
     37 C          27.8217    3.0690   -5.0997 C.2       5 UNK         0.5014 
     38 O          27.6129    4.1999   -5.5417 O.2       5 UNK        -0.5248 
     39 N          26.9093    2.3771   -4.3981 N.am      6 UNK        -0.4434 
     40 CA         25.5609    2.8803   -4.1088 C.3       6 UNK         0.0363 
     41 CB         24.9069    2.0265   -3.0128 C.3       6 UNK        -0.1936 
     42 C          24.6610    2.9617   -5.3583 C.2       6 UNK         0.5081 
     43 O          23.6994    3.7302   -5.3520 O.2       6 UNK        -0.5248 
     44 N          25.0011    2.2046   -6.4107 N.am      7 UNK        -0.4718 
     45 CA         24.3826    2.2695   -7.7375 C.3       7 UNK         0.0273 
     46 CB         24.0121    0.8431   -8.1760 C.3       7 UNK        -0.1935 
     47 C          25.3095    2.9458   -8.7665 C.2       7 UNK         0.5018 
     48 O          25.0322    2.8664   -9.9640 O.2       7 UNK        -0.5186 
     49 N          26.3949    3.5813   -8.2942 N.am      8 UNK        -0.4240 
     50 CA         27.4687    4.2182   -9.0680 C.3       8 UNK         0.0235 
     51 CB         26.9382    5.4360   -9.8552 C.3       8 UNK        -0.2000 
     52 C          28.2719    3.2369   -9.9490 C.2       8 UNK         0.4941 
     53 O          28.8547    3.6584  -10.9504 O.2       8 UNK        -0.5273 
     54 N          28.3085    1.9572   -9.5557 N.am      9 UNK        -0.4262 
     55 CA         29.1265    0.9076  -10.1617 C.3       9 UNK         0.0264 
     56 CB         28.2633   -0.3625  -10.3028 C.3       9 UNK        -0.1955 
     57 C          30.3915    0.6847   -9.3102 C.2       9 UNK         0.5031 
     58 O          30.7367    1.5317   -8.4820 O.2       9 UNK        -0.5390 
     59 N          31.0654   -0.4507   -9.5126 N.am      10 UNK        -0.4204 
     60 CA         32.2315   -0.8777   -8.7451 C.3       10 UNK         0.0237 
     61 CB         33.5171   -0.3755   -9.4265 C.3       10 UNK        -0.1985 
     62 C          32.2206   -2.4051   -8.6385 C.2       10 UNK         0.4970 
     63 O          31.6157   -3.0718   -9.4823 O.2       10 UNK        -0.4914 
     64 N          32.8972   -2.9200   -7.6080 N.am      11 UNK        -0.4285 
     65 CA         33.0734   -4.3555   -7.3500 C.3       11 UNK         0.1007 
     66 C          33.9931   -5.0365   -8.4002 C.2       11 UNK         0.5703 
     67 N          33.7460   -6.3009   -8.7141 N.am      11 UNK        -0.7361 
     68 O          34.9486   -4.4441   -8.8996 O.2       11 UNK        -0.4986 
     69 C69        33.5985   -4.6083   -5.9128 C.3       12 UNK        -0.0947 
     70 S70        32.4283   -4.0251   -4.6429 S.3       12 UNK        -0.2240 
     71 C71        33.2923   -2.5562   -3.9942 C.3       12 UNK         0.0194 
     72 H72        29.8499   -4.7039   -3.1680 H         1 UNK         0.0906 
     73 H73        28.8047   -6.1201   -3.2441 H         1 UNK         0.0906 
     74 H74        28.9557   -5.0603   -4.6477 H         1 UNK         0.0906 
     75 H75        28.9507   -2.8266   -2.3357 H         1 UNK         0.3140 
     76 H76        26.4128   -2.6931   -1.1498 H         1 UNK         0.1085 
     77 H77        26.9880   -0.1989   -0.9623 H         1 UNK         0.0836 
     78 H78        28.4266   -0.5000   -1.8796 H         1 UNK         0.0836 
     79 H79        29.8412   -3.2760   -0.3889 H         1 UNK         0.0731 
     80 H80        30.6887   -2.3585    0.8219 H         1 UNK         0.0731 
     81 H81        31.6635   -3.4048   -1.9546 H         1 UNK         0.1312 
     82 H82        33.0458    0.1567   -3.9062 H         1 UNK         0.1406 
     83 H83        30.4404    0.4456   -0.5219 H         1 UNK         0.1631 
     84 H84        32.5510    2.3274   -2.9746 H         1 UNK         0.0717 
     85 H85        32.0358    2.3613   -1.3121 H         1 UNK         0.0717 
     86 H86        30.4483    4.0082   -4.7347 H         1 UNK         0.0934 
     87 H87        31.2724    2.4934   -4.9141 H         1 UNK         0.0934 
     88 H88        29.3869    2.6889   -6.4535 H         1 UNK         0.0739 
     89 H89        29.8049    0.4570   -4.8677 H         1 UNK         0.3093 
     90 H90        29.1556   -1.4514   -7.3860 H         1 UNK         0.0818 
     91 H91        30.7081   -1.3428   -5.4994 H         1 UNK         0.0819 
     92 H92        29.4073   -1.6148   -4.3366 H         1 UNK         0.0819 
     93 H93        29.8810   -2.8822   -5.4610 H         1 UNK         0.0819 
     94 H94        26.8585   -1.7895   -5.5449 H         1 UNK         0.3041 
     95 H95        25.1517   -3.7009   -7.6191 H         1 UNK         0.0784 
     96 H96        26.5038   -5.7687   -7.5958 H         1 UNK         0.0793 
     97 H97        26.8026   -5.6028   -5.8723 H         1 UNK         0.0793 
     98 H98        25.1729   -5.9200   -6.4624 H         1 UNK         0.0793 
     99 H99        25.5746   -3.7780   -4.6731 H         1 UNK         0.3024 
    100 H100       23.6842   -0.8784   -4.1663 H         1 UNK         0.1171 
    101 H101       22.1490   -2.1762   -2.7046 H         1 UNK         0.0786 
    102 H102       21.7240   -2.4096   -4.3913 H         1 UNK         0.0786 
    103 H103       22.5912   -3.6727   -3.5290 H         1 UNK         0.0786 
    104 H104       24.6025   -2.8924   -2.3440 H         1 UNK         0.2977 
    105 H105       27.1207    1.4299   -4.1086 H         1 UNK         0.3127 
    106 H106       25.6636    3.8958   -3.7197 H         1 UNK         0.0770 
    107 H107       24.7032    1.0166   -3.3606 H         1 UNK         0.0814 
    108 H108       23.9545    2.4582   -2.7026 H         1 UNK         0.0814 
    109 H109       25.5377    1.9596   -2.1264 H         1 UNK         0.0814 
    110 H110       25.8186    1.6049   -6.3411 H         1 UNK         0.2983 
    111 H111       23.4665    2.8629   -7.7053 H         1 UNK         0.0947 
    112 H112       23.5585    0.8335   -9.1677 H         1 UNK         0.0806 
    113 H113       23.2869    0.4045   -7.4916 H         1 UNK         0.0806 
    114 H114       24.8854    0.1895   -8.2064 H         1 UNK         0.0806 
    115 H115       26.5198    3.6107   -7.2889 H         1 UNK         0.3000 
    116 H116       28.1791    4.5944   -8.3303 H         1 UNK         0.0850 
    117 H117       27.7577    6.0033  -10.2980 H         1 UNK         0.0810 
    118 H118       26.3882    6.1184   -9.2073 H         1 UNK         0.0810 
    119 H119       26.2762    5.1365  -10.6681 H         1 UNK         0.0810 
    120 H120       27.8510    1.6995   -8.6860 H         1 UNK         0.3040 
    121 H121       29.4545    1.2102  -11.1580 H         1 UNK         0.0766 
    122 H122       27.3544   -0.1537  -10.8676 H         1 UNK         0.0812 
    123 H123       27.9592   -0.7612   -9.3352 H         1 UNK         0.0812 
    124 H124       28.7888   -1.1548  -10.8364 H         1 UNK         0.0812 
    125 H125       30.7135   -1.1458  -10.1598 H         1 UNK         0.3205 
    126 H126       32.1733   -0.4694   -7.7333 H         1 UNK         0.0754 
    127 H127       34.4045   -0.6868   -8.8737 H         1 UNK         0.0769 
    128 H128       33.5361    0.7132   -9.4811 H         1 UNK         0.0769 
    129 H129       33.6116   -0.7631  -10.4417 H         1 UNK         0.0769 
    130 H130       33.4011   -2.3009   -6.9932 H         1 UNK         0.2981 
    131 H131       32.0872   -4.8179   -7.4319 H         1 UNK         0.0541 
    132 H132       32.9736   -6.8001   -8.3010 H         1 UNK         0.3459 
    133 H133       34.3413   -6.7646   -9.3826 H         1 UNK         0.3459 
    134 H134       34.5736   -4.1404   -5.7652 H         1 UNK         0.0612 
    135 H135       33.7465   -5.6766   -5.7447 H         1 UNK         0.0612 
    136 H136       34.1923   -2.8778   -3.4687 H         1 UNK         0.0624 
    137 H137       33.6220   -1.9459   -4.8357 H         1 UNK         0.0624 
@<TRIPOS>BOND
     1    1    2 1    
     2    1   72 1    
     3    1   73 1    
     4    1   74 1    
     5    2    3 2    
     6    2    4 am   BACKBONE|DICT|INTERRES
     7    4    5 1    
     8    4   75 1    
     9    5    6 1    
    10    5   35 1    
    11    5   76 1    
    12    6    7 1    
    13    6   77 1    
    14    6   78 1    
    15    7    8 1    
    16    8    9 1    
    17    8   79 1    
    18    8   80 1    
    19    9   10 ar   
    20    9   14 ar   
    21   10   11 ar   
    22   10   81 1    
    23   11   12 ar   
    24   11   71 1    
    25   12   13 ar   
    26   12   82 1    
    27   13   14 ar   
    28   13   15 1    
    29   14   83 1    
    30   15   16 1    
    31   15   84 1    
    32   15   85 1    
    33   16   17 1    
    34   17   18 1    
    35   17   86 1    
    36   17   87 1    
    37   18   19 1    
    38   18   37 1    
    39   18   88 1    
    40   19   20 am   BACKBONE|DICT|INTERRES
    41   19   89 1    
    42   20   21 2    
    43   20   22 1    
    44   22   23 1    
    45   22   24 1    
    46   22   90 1    
    47   23   91 1    
    48   23   92 1    
    49   23   93 1    
    50   24   25 am   BACKBONE|DICT|INTERRES
    51   24   94 1    
    52   25   26 2    
    53   25   27 1    
    54   27   28 1    
    55   27   29 1    
    56   27   95 1    
    57   28   96 1    
    58   28   97 1    
    59   28   98 1    
    60   29   30 am   BACKBONE|DICT|INTERRES
    61   29   99 1    
    62   30   31 2    
    63   30   32 1    
    64   32   33 1    
    65   32   34 1    
    66   32  100 1    
    67   33  101 1    
    68   33  102 1    
    69   33  103 1    
    70   34   35 am   BACKBONE|DICT|INTERRES
    71   34  104 1    
    72   35   36 2    
    73   37   38 2    
    74   37   39 am   BACKBONE|DICT|INTERRES
    75   39   40 1    
    76   39  105 1    
    77   40   41 1    
    78   40   42 1    
    79   40  106 1    
    80   41  107 1    
    81   41  108 1    
    82   41  109 1    
    83   42   43 2    
    84   42   44 am   BACKBONE|DICT|INTERRES
    85   44   45 1    
    86   44  110 1    
    87   45   46 1    
    88   45   47 1    
    89   45  111 1    
    90   46  112 1    
    91   46  113 1    
    92   46  114 1    
    93   47   48 2    
    94   47   49 am   BACKBONE|DICT|INTERRES
    95   49   50 1    
    96   49  115 1    
    97   50   51 1    
    98   50   52 1    
    99   50  116 1    
   100   51  117 1    
   101   51  118 1    
   102   51  119 1    
   103   52   53 2    
   104   52   54 am   BACKBONE|DICT|INTERRES
   105   54   55 1    
   106   54  120 1    
   107   55   56 1    
   108   55   57 1    
   109   55  121 1    
   110   56  122 1    
   111   56  123 1    
   112   56  124 1    
   113   57   58 2    
   114   57   59 am   BACKBONE|DICT|INTERRES
   115   59   60 1    
   116   59  125 1    
   117   60   61 1    
   118   60   62 1    
   119   60  126 1    
   120   61  127 1    
   121   61  128 1    
   122   61  129 1    
   123   62   63 2    
   124   62   64 am   BACKBONE|DICT|INTERRES
   125   64   65 1    
   126   64  130 1    
   127   65   66 1    
   128   65   69 1    
   129   65  131 1    
   130   66   67 am   BACKBONE|DICT|INTERRES
   131   66   68 2    
   132   67  132 1    
   133   67  133 1    
   134   69   70 1    
   135   69  134 1    
   136   69  135 1    
   137   70   71 1    
   138   71  136 1    
   139   71  137 1    
@<TRIPOS>SUBSTRUCTURE
     1 UNK         1 GROUP             0       ****    0 ROOT    
