@<TRIPOS>MOLECULE
3R137
137   139    1
SMALL
USER_CHARGES


@<TRIPOS>ATOM
      1 CA         29.6234   -0.5741   -2.8518 C.3       0 UNK        -0.2020 
      2 C          30.0596   -0.4757   -1.3925 C.2       0 UNK         0.4855 
      3 O          30.7191    0.4923   -1.0214 O.2       0 UNK        -0.5197 
      4 N          29.7333   -1.4479   -0.5301 N.am      1 UNK        -0.4892 
      5 CA         28.8885   -2.6147   -0.8032 C.3       1 UNK         0.0835 
      6 C6         29.1373   -3.7328    0.2391 C.3       12 UNK        -0.0855 
      7 S7         28.6729   -5.3855   -0.3801 S.3       12 UNK        -0.2931 
      8 C8         30.2494   -5.9764   -1.0778 C.3       12 UNK         0.0378 
      9 C9         30.6103   -5.2383   -2.3595 C.ar      12 UNK        -0.0802 
     10 C10        31.5936   -4.2435   -2.3553 C.ar      12 UNK        -0.0944 
     11 C11        31.9318   -3.5623   -3.5295 C.ar      12 UNK        -0.0787 
     12 C12        31.2741   -3.9048   -4.7187 C.ar      12 UNK        -0.0862 
     13 C13        30.2743   -4.8832   -4.7371 C.ar      12 UNK        -0.0733 
     14 C14        29.9525   -5.5501   -3.5523 C.ar      12 UNK        -0.0832 
     15 C15        29.5643   -5.2611   -6.0348 C.3       12 UNK         0.0240 
     16 S16        29.1705   -3.8373   -7.1053 S.3       12 UNK        -0.2522 
     17 C17        27.8398   -3.0169   -6.1680 C.3       12 UNK        -0.0967 
     18 CA         27.2009   -1.8737   -6.9972 C.3       5 UNK         0.0660 
     19 N          25.7867   -1.6681   -6.6727 N.am      5 UNK        -0.4015 
     20 C          24.9127   -1.0463   -7.4783 C.2       4 UNK         0.4946 
     21 O          25.2052   -0.5951   -8.5840 O.2       4 UNK        -0.5353 
     22 CA         23.4791   -0.8589   -6.9548 C.3       4 UNK         0.0277 
     23 CB         22.6486   -2.1321   -7.1817 C.3       4 UNK        -0.1981 
     24 N          23.4372   -0.4872   -5.5405 N.am      4 UNK        -0.4209 
     25 C          23.9309    0.6562   -5.0442 C.2       3 UNK         0.4942 
     26 O          24.4058    1.5546   -5.7378 O.2       3 UNK        -0.5208 
     27 CA         23.9484    0.7958   -3.5118 C.3       3 UNK         0.0250 
     28 CB         22.6475    1.4470   -3.0166 C.3       3 UNK        -0.1990 
     29 N          24.1693   -0.4687   -2.7971 N.am      3 UNK        -0.4232 
     30 C          25.2346   -1.2661   -2.9584 C.2       2 UNK         0.4993 
     31 O          26.1306   -1.0597   -3.7826 O.2       2 UNK        -0.5286 
     32 CA         25.2750   -2.5448   -2.1082 C.3       2 UNK         0.0209 
     33 CB         24.6478   -3.7151   -2.8833 C.3       2 UNK        -0.1931 
     34 N          26.6523   -2.8920   -1.7593 N.am      2 UNK        -0.4546 
     35 C          27.4030   -2.2110   -0.8851 C.2       1 UNK         0.5154 
     36 O          26.9710   -1.3010   -0.1723 O.2       1 UNK        -0.5181 
     37 C          27.9952   -0.5582   -6.8851 C.2       5 UNK         0.5014 
     38 O          28.8361   -0.2835   -7.7434 O.2       5 UNK        -0.5248 
     39 N          27.6758    0.2613   -5.8706 N.am      6 UNK        -0.4434 
     40 CA         28.2097    1.6176   -5.7071 C.3       6 UNK         0.0363 
     41 CB         27.6745    2.2466   -4.4104 C.3       6 UNK        -0.1936 
     42 C          27.8978    2.5283   -6.9081 C.2       6 UNK         0.5081 
     43 O          28.7563    3.3115   -7.3089 O.2       6 UNK        -0.5248 
     44 N          26.6918    2.3920   -7.4748 N.am      7 UNK        -0.4718 
     45 CA         26.2724    3.0792   -8.6936 C.3       7 UNK         0.0273 
     46 CB         24.7379    3.0576   -8.7954 C.3       7 UNK        -0.1935 
     47 C          26.9200    2.4870   -9.9571 C.2       7 UNK         0.5018 
     48 O          27.5349    3.2316  -10.7211 O.2       7 UNK        -0.5186 
     49 N          26.7449    1.1755  -10.1763 N.am      8 UNK        -0.4240 
     50 CA         27.1036    0.5003  -11.4268 C.3       8 UNK         0.0235 
     51 CB         26.3698   -0.8474  -11.5216 C.3       8 UNK        -0.2000 
     52 C          28.6118    0.2971  -11.6261 C.2       8 UNK         0.4941 
     53 O          29.1037    0.5340  -12.7304 O.2       8 UNK        -0.5273 
     54 N          29.3134   -0.1611  -10.5812 N.am      9 UNK        -0.4262 
     55 CA         30.7358   -0.5123  -10.6453 C.3       9 UNK         0.0264 
     56 CB         30.9702   -1.8033   -9.8402 C.3       9 UNK        -0.1955 
     57 C          31.6510    0.6128  -10.1376 C.2       9 UNK         0.5031 
     58 O          32.8696    0.4796  -10.2596 O.2       9 UNK        -0.5390 
     59 N          31.0677    1.6745   -9.5569 N.am      10 UNK        -0.4204 
     60 CA         31.7410    2.7982   -8.8876 C.3       10 UNK         0.0237 
     61 CB         32.5790    3.6235   -9.8887 C.3       10 UNK        -0.1985 
     62 C          32.5463    2.3635   -7.6437 C.2       10 UNK         0.4970 
     63 O          33.5259    3.0220   -7.2884 O.2       10 UNK        -0.4914 
     64 N          32.1341    1.2517   -7.0198 N.am      11 UNK        -0.4285 
     65 CA         32.7873    0.6457   -5.8541 C.3       11 UNK         0.1007 
     66 C          32.5755    1.4579   -4.5455 C.2       11 UNK         0.5703 
     67 N          33.4273    1.2584   -3.5497 N.am      11 UNK        -0.7361 
     68 O          31.6382    2.2423   -4.4135 O.2       11 UNK        -0.4986 
     69 C69        32.3636   -0.8411   -5.7109 C.3       12 UNK        -0.0947 
     70 S70        33.6952   -1.8960   -5.0404 S.3       12 UNK        -0.2240 
     71 C71        32.9901   -2.4564   -3.4497 C.3       12 UNK         0.0194 
     72 H72        29.9862   -1.4892   -3.3153 H         1 UNK         0.0906 
     73 H73        28.5396   -0.5495   -2.9350 H         1 UNK         0.0906 
     74 H74        30.0148    0.2660   -3.4231 H         1 UNK         0.0906 
     75 H75        30.0050   -1.3339    0.4360 H         1 UNK         0.3140 
     76 H76        29.1738   -2.9973   -1.7827 H         1 UNK         0.1085 
     77 H77        30.1923   -3.7636    0.5169 H         1 UNK         0.0836 
     78 H78        28.5982   -3.5349    1.1679 H         1 UNK         0.0836 
     79 H79        30.1618   -7.0432   -1.2895 H         1 UNK         0.0731 
     80 H80        31.0424   -5.8809   -0.3343 H         1 UNK         0.0731 
     81 H81        32.0927   -3.9908   -1.4294 H         1 UNK         0.1312 
     82 H82        31.5263   -3.4117   -5.6444 H         1 UNK         0.1406 
     83 H83        29.1905   -6.3181   -3.5545 H         1 UNK         0.1631 
     84 H84        28.6434   -5.8088   -5.8285 H         1 UNK         0.0717 
     85 H85        30.2096   -5.9420   -6.5911 H         1 UNK         0.0717 
     86 H86        27.0921   -3.7778   -5.9380 H         1 UNK         0.0934 
     87 H87        28.2184   -2.6658   -5.2054 H         1 UNK         0.0934 
     88 H88        27.2287   -2.1664   -8.0498 H         1 UNK         0.0739 
     89 H89        25.5000   -1.9147   -5.7355 H         1 UNK         0.3093 
     90 H90        23.0236   -0.0475   -7.5269 H         1 UNK         0.0818 
     91 H91        21.6073   -1.9827   -6.8955 H         1 UNK         0.0819 
     92 H92        22.6547   -2.4174   -8.2348 H         1 UNK         0.0819 
     93 H93        23.0358   -2.9784   -6.6128 H         1 UNK         0.0819 
     94 H94        23.0517   -1.1622   -4.8966 H         1 UNK         0.3041 
     95 H95        24.7773    1.4583   -3.2563 H         1 UNK         0.0784 
     96 H96        22.4728    2.3997   -3.5190 H         1 UNK         0.0793 
     97 H97        21.7794    0.8145   -3.2068 H         1 UNK         0.0793 
     98 H98        22.6874    1.6513   -1.9465 H         1 UNK         0.0793 
     99 H99        23.4711   -0.7226   -2.1125 H         1 UNK         0.3024 
    100 H100       24.7123   -2.3819   -1.1860 H         1 UNK         0.1171 
    101 H101       23.6079   -3.5061   -3.1381 H         1 UNK         0.0786 
    102 H102       25.1786   -3.9161   -3.8150 H         1 UNK         0.0786 
    103 H103       24.6550   -4.6305   -2.2911 H         1 UNK         0.0786 
    104 H104       27.0790   -3.6330   -2.2961 H         1 UNK         0.2977 
    105 H105       27.0033   -0.0617   -5.1791 H         1 UNK         0.3127 
    106 H106       29.2948    1.5320   -5.6266 H         1 UNK         0.0770 
    107 H107       26.6048    2.4438   -4.4694 H         1 UNK         0.0814 
    108 H108       28.1675    3.1999   -4.2163 H         1 UNK         0.0814 
    109 H109       27.8495    1.6119   -3.5437 H         1 UNK         0.0814 
    110 H110       26.0120    1.7818   -7.0331 H         1 UNK         0.2983 
    111 H111       26.5856    4.1234   -8.6216 H         1 UNK         0.0947 
    112 H112       24.3982    3.5674   -9.6979 H         1 UNK         0.0806 
    113 H113       24.2799    3.5633   -7.9450 H         1 UNK         0.0806 
    114 H114       24.3446    2.0409   -8.8254 H         1 UNK         0.0806 
    115 H115       26.2184    0.6231   -9.5004 H         1 UNK         0.3000 
    116 H116       26.7496    1.1245  -12.2506 H         1 UNK         0.0850 
    117 H117       26.6642   -1.5254  -10.7195 H         1 UNK         0.0810 
    118 H118       26.5873   -1.3463  -12.4670 H         1 UNK         0.0810 
    119 H119       25.2891   -0.7150  -11.4663 H         1 UNK         0.0810 
    120 H120       28.8604   -0.2900   -9.6793 H         1 UNK         0.3040 
    121 H121       31.0226   -0.7150  -11.6794 H         1 UNK         0.0766 
    122 H122       30.7781   -1.6625   -8.7769 H         1 UNK         0.0812 
    123 H123       32.0021   -2.1427   -9.9380 H         1 UNK         0.0812 
    124 H124       30.3296   -2.6129  -10.1900 H         1 UNK         0.0812 
    125 H125       30.0579    1.6768   -9.5041 H         1 UNK         0.3205 
    126 H126       30.9541    3.4552   -8.5212 H         1 UNK         0.0754 
    127 H127       32.9427    4.5429   -9.4285 H         1 UNK         0.0769 
    128 H128       31.9876    3.9108  -10.7580 H         1 UNK         0.0769 
    129 H129       33.4510    3.0726  -10.2423 H         1 UNK         0.0769 
    130 H130       31.2971    0.7956   -7.3521 H         1 UNK         0.2981 
    131 H131       33.8574    0.6737   -6.0704 H         1 UNK         0.0541 
    132 H132       34.1900    0.6062   -3.6426 H         1 UNK         0.3459 
    133 H133       33.2930    1.7588   -2.6854 H         1 UNK         0.3459 
    134 H134       32.1248   -1.2587   -6.6904 H         1 UNK         0.0612 
    135 H135       31.4503   -0.9423   -5.1245 H         1 UNK         0.0612 
    136 H136       32.5718   -1.5972   -2.9244 H         1 UNK         0.0624 
    137 H137       33.8197   -2.8133   -2.8377 H         1 UNK         0.0624 
@<TRIPOS>BOND
     1    1    2 1    
     2    1   72 1    
     3    1   73 1    
     4    1   74 1    
     5    2    3 2    
     6    2    4 am   BACKBONE|DICT|INTERRES
     7    4    5 1    
     8    4   75 1    
     9    5    6 1    
    10    5   35 1    
    11    5   76 1    
    12    6    7 1    
    13    6   77 1    
    14    6   78 1    
    15    7    8 1    
    16    8    9 1    
    17    8   79 1    
    18    8   80 1    
    19    9   10 ar   
    20    9   14 ar   
    21   10   11 ar   
    22   10   81 1    
    23   11   12 ar   
    24   11   71 1    
    25   12   13 ar   
    26   12   82 1    
    27   13   14 ar   
    28   13   15 1    
    29   14   83 1    
    30   15   16 1    
    31   15   84 1    
    32   15   85 1    
    33   16   17 1    
    34   17   18 1    
    35   17   86 1    
    36   17   87 1    
    37   18   19 1    
    38   18   37 1    
    39   18   88 1    
    40   19   20 am   BACKBONE|DICT|INTERRES
    41   19   89 1    
    42   20   21 2    
    43   20   22 1    
    44   22   23 1    
    45   22   24 1    
    46   22   90 1    
    47   23   91 1    
    48   23   92 1    
    49   23   93 1    
    50   24   25 am   BACKBONE|DICT|INTERRES
    51   24   94 1    
    52   25   26 2    
    53   25   27 1    
    54   27   28 1    
    55   27   29 1    
    56   27   95 1    
    57   28   96 1    
    58   28   97 1    
    59   28   98 1    
    60   29   30 am   BACKBONE|DICT|INTERRES
    61   29   99 1    
    62   30   31 2    
    63   30   32 1    
    64   32   33 1    
    65   32   34 1    
    66   32  100 1    
    67   33  101 1    
    68   33  102 1    
    69   33  103 1    
    70   34   35 am   BACKBONE|DICT|INTERRES
    71   34  104 1    
    72   35   36 2    
    73   37   38 2    
    74   37   39 am   BACKBONE|DICT|INTERRES
    75   39   40 1    
    76   39  105 1    
    77   40   41 1    
    78   40   42 1    
    79   40  106 1    
    80   41  107 1    
    81   41  108 1    
    82   41  109 1    
    83   42   43 2    
    84   42   44 am   BACKBONE|DICT|INTERRES
    85   44   45 1    
    86   44  110 1    
    87   45   46 1    
    88   45   47 1    
    89   45  111 1    
    90   46  112 1    
    91   46  113 1    
    92   46  114 1    
    93   47   48 2    
    94   47   49 am   BACKBONE|DICT|INTERRES
    95   49   50 1    
    96   49  115 1    
    97   50   51 1    
    98   50   52 1    
    99   50  116 1    
   100   51  117 1    
   101   51  118 1    
   102   51  119 1    
   103   52   53 2    
   104   52   54 am   BACKBONE|DICT|INTERRES
   105   54   55 1    
   106   54  120 1    
   107   55   56 1    
   108   55   57 1    
   109   55  121 1    
   110   56  122 1    
   111   56  123 1    
   112   56  124 1    
   113   57   58 2    
   114   57   59 am   BACKBONE|DICT|INTERRES
   115   59   60 1    
   116   59  125 1    
   117   60   61 1    
   118   60   62 1    
   119   60  126 1    
   120   61  127 1    
   121   61  128 1    
   122   61  129 1    
   123   62   63 2    
   124   62   64 am   BACKBONE|DICT|INTERRES
   125   64   65 1    
   126   64  130 1    
   127   65   66 1    
   128   65   69 1    
   129   65  131 1    
   130   66   67 am   BACKBONE|DICT|INTERRES
   131   66   68 2    
   132   67  132 1    
   133   67  133 1    
   134   69   70 1    
   135   69  134 1    
   136   69  135 1    
   137   70   71 1    
   138   71  136 1    
   139   71  137 1    
@<TRIPOS>SUBSTRUCTURE
     1 UNK         1 GROUP             0       ****    0 ROOT    
