@<TRIPOS>MOLECULE
3R137
137   139    1
SMALL
USER_CHARGES


@<TRIPOS>ATOM
      1 CA         29.9480    1.2244   -2.0721 C.3       0 UNK        -0.2020 
      2 C          29.5385   -0.2295   -2.2372 C.2       0 UNK         0.4855 
      3 O          29.1667   -0.6443   -3.3342 O.2       0 UNK        -0.5197 
      4 N          29.5887   -1.0100   -1.1499 N.am      1 UNK        -0.4892 
      5 CA         29.1950   -2.4231   -1.1225 C.3       1 UNK         0.0835 
      6 C6         29.9584   -3.2334   -0.0428 C.3       12 UNK        -0.0855 
      7 S7         31.7457   -3.3630   -0.3868 S.3       12 UNK        -0.2931 
      8 C8         31.8512   -4.9983   -1.1898 C.3       12 UNK         0.0378 
      9 C9         31.4193   -4.9316   -2.6478 C.ar      12 UNK        -0.0802 
     10 C10        32.3469   -4.5787   -3.6304 C.ar      12 UNK        -0.0944 
     11 C11        31.9591   -4.4847   -4.9687 C.ar      12 UNK        -0.0787 
     12 C12        30.6330   -4.7462   -5.3222 C.ar      12 UNK        -0.0862 
     13 C13        29.6801   -5.0614   -4.3448 C.ar      12 UNK        -0.0733 
     14 C14        30.0949   -5.1935   -3.0148 C.ar      12 UNK        -0.0832 
     15 C15        28.1981   -5.2518   -4.6772 C.3       12 UNK         0.0240 
     16 S16        27.6062   -4.3997   -6.1851 S.3       12 UNK        -0.2522 
     17 C17        28.0092   -2.6516   -5.8453 C.3       12 UNK        -0.0967 
     18 CA         27.3148   -1.7060   -6.8543 C.3       5 UNK         0.0660 
     19 N          25.8574   -1.6910   -6.6944 N.am      5 UNK        -0.4015 
     20 C          24.9953   -1.1398   -7.5597 C.2       4 UNK         0.4946 
     21 O          25.3325   -0.5793   -8.6014 O.2       4 UNK        -0.5353 
     22 CA         23.5063   -1.1927   -7.1829 C.3       4 UNK         0.0277 
     23 CB         22.9239   -2.5892   -7.4540 C.3       4 UNK        -0.1981 
     24 N          23.2718   -0.8177   -5.7871 N.am      4 UNK        -0.4209 
     25 C          23.4590    0.4165   -5.2969 C.2       3 UNK         0.4942 
     26 O          23.7878    1.3851   -5.9820 O.2       3 UNK        -0.5208 
     27 CA         23.2944    0.5887   -3.7752 C.3       3 UNK         0.0250 
     28 CB         21.8194    0.8278   -3.4147 C.3       3 UNK        -0.1990 
     29 N          23.8232   -0.5295   -2.9800 N.am      3 UNK        -0.4232 
     30 C          25.0892   -0.9646   -3.0349 C.2       2 UNK         0.4993 
     31 O          25.9304   -0.5147   -3.8137 O.2       2 UNK        -0.5286 
     32 CA         25.4829   -2.1165   -2.1080 C.3       2 UNK         0.0209 
     33 CB         24.9915   -3.4645   -2.6664 C.3       2 UNK        -0.1931 
     34 N          26.9397   -2.1272   -2.0141 N.am      2 UNK        -0.4546 
     35 C          27.6642   -2.5609   -0.9815 C.2       1 UNK         0.5154 
     36 O          27.1699   -3.0333    0.0444 O.2       1 UNK        -0.5181 
     37 C          27.9085   -0.2862   -6.7973 C.2       5 UNK         0.5014 
     38 O          28.7492    0.0483   -7.6333 O.2       5 UNK        -0.5248 
     39 N          27.4276    0.5405   -5.8602 N.am      6 UNK        -0.4434 
     40 CA         27.7933    1.9486   -5.7074 C.3       6 UNK         0.0363 
     41 CB         27.1186    2.5153   -4.4487 C.3       6 UNK        -0.1936 
     42 C          27.4402    2.8026   -6.9375 C.2       6 UNK         0.5081 
     43 O          28.1907    3.7201   -7.2674 O.2       6 UNK        -0.5248 
     44 N          26.3192    2.4828   -7.5969 N.am      7 UNK        -0.4718 
     45 CA         25.8822    3.1288   -8.8320 C.3       7 UNK         0.0273 
     46 CB         24.3665    2.9348   -9.0048 C.3       7 UNK        -0.1935 
     47 C          26.6455    2.6127  -10.0626 C.2       7 UNK         0.5018 
     48 O          27.1403    3.4238  -10.8464 O.2       7 UNK        -0.5186 
     49 N          26.6930    1.2841  -10.2345 N.am      8 UNK        -0.4240 
     50 CA         27.2059    0.6352  -11.4426 C.3       8 UNK         0.0235 
     51 CB         26.6150   -0.7800  -11.5578 C.3       8 UNK        -0.2000 
     52 C          28.7381    0.5790  -11.5172 C.2       8 UNK         0.4941 
     53 O          29.2930    0.8571  -12.5814 O.2       8 UNK        -0.5273 
     54 N          29.3875    0.1829  -10.4156 N.am      9 UNK        -0.4262 
     55 CA         30.8278   -0.0814  -10.3567 C.3       9 UNK         0.0264 
     56 CB         31.0531   -1.4795   -9.7582 C.3       9 UNK        -0.1955 
     57 C          31.5893    0.9788   -9.5487 C.2       9 UNK         0.5031 
     58 O          32.7489    1.2438   -9.8688 O.2       9 UNK        -0.5390 
     59 N          30.9362    1.5587   -8.5298 N.am      10 UNK        -0.4204 
     60 CA         31.4682    2.5479   -7.5833 C.3       10 UNK         0.0237 
     61 CB         31.8028    3.8777   -8.2930 C.3       10 UNK        -0.1985 
     62 C          32.6334    1.9855   -6.7468 C.2       10 UNK         0.4970 
     63 O          33.6769    2.6296   -6.6205 O.2       10 UNK        -0.4914 
     64 N          32.4287    0.7758   -6.2105 N.am      11 UNK        -0.4285 
     65 CA         33.3821    0.0382   -5.3691 C.3       11 UNK         0.1007 
     66 C          33.7355    0.7691   -4.0436 C.2       11 UNK         0.5703 
     67 N          34.9264    0.5353   -3.5084 N.am      11 UNK        -0.7361 
     68 O          32.9360    1.5135   -3.4801 O.2       11 UNK        -0.4986 
     69 C69        32.8747   -1.3979   -5.0829 C.3       12 UNK        -0.0947 
     70 S70        32.6401   -2.3667   -6.6110 S.3       12 UNK        -0.2240 
     71 C71        32.9619   -4.0617   -6.0308 C.3       12 UNK         0.0194 
     72 H72        29.1255    1.8056   -1.6566 H         1 UNK         0.0906 
     73 H73        30.8109    1.3178   -1.4130 H         1 UNK         0.0906 
     74 H74        30.2155    1.6546   -3.0373 H         1 UNK         0.0906 
     75 H75        29.8892   -0.6205   -0.2675 H         1 UNK         0.3140 
     76 H76        29.4463   -2.8503   -2.0927 H         1 UNK         0.1085 
     77 H77        29.8294   -2.7738    0.9389 H         1 UNK         0.0836 
     78 H78        29.5501   -4.2417    0.0482 H         1 UNK         0.0836 
     79 H79        32.8829   -5.3488   -1.1314 H         1 UNK         0.0731 
     80 H80        31.2558   -5.7297   -0.6412 H         1 UNK         0.0731 
     81 H81        33.3680   -4.3603   -3.3488 H         1 UNK         0.1312 
     82 H82        30.3440   -4.6594   -6.3601 H         1 UNK         0.1406 
     83 H83        29.3741   -5.4591   -2.2533 H         1 UNK         0.1631 
     84 H84        28.0034   -6.3193   -4.7864 H         1 UNK         0.0717 
     85 H85        27.5881   -4.9108   -3.8393 H         1 UNK         0.0717 
     86 H86        27.7251   -2.4061   -4.8214 H         1 UNK         0.0934 
     87 H87        29.0932   -2.5320   -5.8958 H         1 UNK         0.0934 
     88 H88        27.5223   -2.0809   -7.8593 H         1 UNK         0.0739 
     89 H89        25.4998   -2.0911   -5.8412 H         1 UNK         0.3093 
     90 H90        22.9800   -0.4761   -7.8177 H         1 UNK         0.0818 
     91 H91        21.8494   -2.6126   -7.2710 H         1 UNK         0.0819 
     92 H92        23.0793   -2.8794   -8.4942 H         1 UNK         0.0819 
     93 H93        23.3878   -3.3543   -6.8301 H         1 UNK         0.0819 
     94 H94        22.9909   -1.5493   -5.1509 H         1 UNK         0.3041 
     95 H95        23.8599    1.4790   -3.4920 H         1 UNK         0.0784 
     96 H96        21.4104    1.6657   -3.9815 H         1 UNK         0.0793 
     97 H97        21.2020   -0.0448   -3.6318 H         1 UNK         0.0793 
     98 H98        21.7026    1.0681   -2.3577 H         1 UNK         0.0793 
     99 H99        23.1854   -0.9600   -2.3254 H         1 UNK         0.3024 
    100 H100       25.0515   -1.9357   -1.1207 H         1 UNK         0.1171 
    101 H101       25.2938   -4.2926   -2.0250 H         1 UNK         0.0786 
    102 H102       23.9033   -3.4911   -2.7330 H         1 UNK         0.0786 
    103 H103       25.3860   -3.6558   -3.6651 H         1 UNK         0.0786 
    104 H104       27.4151   -1.6327   -2.7666 H         1 UNK         0.2977 
    105 H105       26.7869    0.1616   -5.1607 H         1 UNK         0.3127 
    106 H106       28.8737    1.9898   -5.5621 H         1 UNK         0.0770 
    107 H107       26.0316    2.4989   -4.5349 H         1 UNK         0.0814 
    108 H108       27.4198    3.5490   -4.2750 H         1 UNK         0.0814 
    109 H109       27.3896    1.9420   -3.5624 H         1 UNK         0.0814 
    110 H110       25.7374    1.7363   -7.2364 H         1 UNK         0.2983 
    111 H111       26.0729    4.2014   -8.7501 H         1 UNK         0.0947 
    112 H112       24.0127    3.4112   -9.9200 H         1 UNK         0.0806 
    113 H113       23.8156    3.3771   -8.1744 H         1 UNK         0.0806 
    114 H114       24.0937    1.8801   -9.0575 H         1 UNK         0.0806 
    115 H115       26.2402    0.6788   -9.5501 H         1 UNK         0.3000 
    116 H116       26.8577    1.2067  -12.3061 H         1 UNK         0.0850 
    117 H117       26.9497   -1.2708  -12.4727 H         1 UNK         0.0810 
    118 H118       25.5255   -0.7532  -11.5837 H         1 UNK         0.0810 
    119 H119       26.9121   -1.4125  -10.7201 H         1 UNK         0.0810 
    120 H120       28.8648    0.0248   -9.5589 H         1 UNK         0.3040 
    121 H121       31.2545   -0.0835  -11.3620 H         1 UNK         0.0766 
    122 H122       30.5983   -2.2524  -10.3776 H         1 UNK         0.0812 
    123 H123       30.6316   -1.5650   -8.7563 H         1 UNK         0.0812 
    124 H124       32.1176   -1.7072   -9.6858 H         1 UNK         0.0812 
    125 H125       30.0139    1.1906   -8.3038 H         1 UNK         0.3205 
    126 H126       30.6687    2.7564   -6.8737 H         1 UNK         0.0754 
    127 H127       32.0867    4.6435   -7.5703 H         1 UNK         0.0769 
    128 H128       30.9411    4.2566   -8.8430 H         1 UNK         0.0769 
    129 H129       32.6303    3.7706   -8.9947 H         1 UNK         0.0769 
    130 H130       31.5459    0.3154   -6.3722 H         1 UNK         0.2981 
    131 H131       34.3055   -0.0396   -5.9466 H         1 UNK         0.0541 
    132 H132       35.1699    0.9902   -2.6426 H         1 UNK         0.3459 
    133 H133       35.5889   -0.0800   -3.9543 H         1 UNK         0.3459 
    134 H134       33.5851   -1.9281   -4.4461 H         1 UNK         0.0612 
    135 H135       31.9288   -1.3754   -4.5372 H         1 UNK         0.0612 
    136 H136       33.9839   -4.1270   -5.6542 H         1 UNK         0.0624 
    137 H137       32.9013   -4.7439   -6.8797 H         1 UNK         0.0624 
@<TRIPOS>BOND
     1    1    2 1    
     2    1   72 1    
     3    1   73 1    
     4    1   74 1    
     5    2    3 2    
     6    2    4 am   BACKBONE|DICT|INTERRES
     7    4    5 1    
     8    4   75 1    
     9    5    6 1    
    10    5   35 1    
    11    5   76 1    
    12    6    7 1    
    13    6   77 1    
    14    6   78 1    
    15    7    8 1    
    16    8    9 1    
    17    8   79 1    
    18    8   80 1    
    19    9   10 ar   
    20    9   14 ar   
    21   10   11 ar   
    22   10   81 1    
    23   11   12 ar   
    24   11   71 1    
    25   12   13 ar   
    26   12   82 1    
    27   13   14 ar   
    28   13   15 1    
    29   14   83 1    
    30   15   16 1    
    31   15   84 1    
    32   15   85 1    
    33   16   17 1    
    34   17   18 1    
    35   17   86 1    
    36   17   87 1    
    37   18   19 1    
    38   18   37 1    
    39   18   88 1    
    40   19   20 am   BACKBONE|DICT|INTERRES
    41   19   89 1    
    42   20   21 2    
    43   20   22 1    
    44   22   23 1    
    45   22   24 1    
    46   22   90 1    
    47   23   91 1    
    48   23   92 1    
    49   23   93 1    
    50   24   25 am   BACKBONE|DICT|INTERRES
    51   24   94 1    
    52   25   26 2    
    53   25   27 1    
    54   27   28 1    
    55   27   29 1    
    56   27   95 1    
    57   28   96 1    
    58   28   97 1    
    59   28   98 1    
    60   29   30 am   BACKBONE|DICT|INTERRES
    61   29   99 1    
    62   30   31 2    
    63   30   32 1    
    64   32   33 1    
    65   32   34 1    
    66   32  100 1    
    67   33  101 1    
    68   33  102 1    
    69   33  103 1    
    70   34   35 am   BACKBONE|DICT|INTERRES
    71   34  104 1    
    72   35   36 2    
    73   37   38 2    
    74   37   39 am   BACKBONE|DICT|INTERRES
    75   39   40 1    
    76   39  105 1    
    77   40   41 1    
    78   40   42 1    
    79   40  106 1    
    80   41  107 1    
    81   41  108 1    
    82   41  109 1    
    83   42   43 2    
    84   42   44 am   BACKBONE|DICT|INTERRES
    85   44   45 1    
    86   44  110 1    
    87   45   46 1    
    88   45   47 1    
    89   45  111 1    
    90   46  112 1    
    91   46  113 1    
    92   46  114 1    
    93   47   48 2    
    94   47   49 am   BACKBONE|DICT|INTERRES
    95   49   50 1    
    96   49  115 1    
    97   50   51 1    
    98   50   52 1    
    99   50  116 1    
   100   51  117 1    
   101   51  118 1    
   102   51  119 1    
   103   52   53 2    
   104   52   54 am   BACKBONE|DICT|INTERRES
   105   54   55 1    
   106   54  120 1    
   107   55   56 1    
   108   55   57 1    
   109   55  121 1    
   110   56  122 1    
   111   56  123 1    
   112   56  124 1    
   113   57   58 2    
   114   57   59 am   BACKBONE|DICT|INTERRES
   115   59   60 1    
   116   59  125 1    
   117   60   61 1    
   118   60   62 1    
   119   60  126 1    
   120   61  127 1    
   121   61  128 1    
   122   61  129 1    
   123   62   63 2    
   124   62   64 am   BACKBONE|DICT|INTERRES
   125   64   65 1    
   126   64  130 1    
   127   65   66 1    
   128   65   69 1    
   129   65  131 1    
   130   66   67 am   BACKBONE|DICT|INTERRES
   131   66   68 2    
   132   67  132 1    
   133   67  133 1    
   134   69   70 1    
   135   69  134 1    
   136   69  135 1    
   137   70   71 1    
   138   71  136 1    
   139   71  137 1    
@<TRIPOS>SUBSTRUCTURE
     1 UNK         1 GROUP             0       ****    0 ROOT    
