@<TRIPOS>MOLECULE
3R137
137   139    1
SMALL
USER_CHARGES


@<TRIPOS>ATOM
      1 CA         30.0933   -0.1306    0.9822 C.3       0 UNK        -0.2020 
      2 C          29.3510   -0.9787   -0.0393 C.2       0 UNK         0.4855 
      3 O          28.9456   -0.4639   -1.0807 O.2       0 UNK        -0.5197 
      4 N          29.1795   -2.2747    0.2481 N.am      1 UNK        -0.4892 
      5 CA         28.4812   -3.2416   -0.6066 C.3       1 UNK         0.0835 
      6 C6         28.7573   -4.7103   -0.1807 C.3       12 UNK        -0.0855 
      7 S7         30.5326   -5.0729    0.0848 S.3       12 UNK        -0.2931 
      8 C8         31.0514   -5.7772   -1.5147 C.3       12 UNK         0.0378 
      9 C9         30.7763   -4.8319   -2.6754 C.ar      12 UNK        -0.0802 
     10 C10        31.4007   -3.5799   -2.7354 C.ar      12 UNK        -0.0944 
     11 C11        31.0966   -2.6799   -3.7625 C.ar      12 UNK        -0.0787 
     12 C12        30.1856   -3.0631   -4.7510 C.ar      12 UNK        -0.0862 
     13 C13        29.5690   -4.3144   -4.7106 C.ar      12 UNK        -0.0733 
     14 C14        29.8653   -5.1969   -3.6708 C.ar      12 UNK        -0.0832 
     15 C15        28.5666   -4.6915   -5.7844 C.3       12 UNK         0.0240 
     16 S16        26.8967   -4.1337   -5.3263 S.3       12 UNK        -0.2522 
     17 C17        26.1703   -3.8802   -6.9811 C.3       12 UNK        -0.0967 
     18 CA         26.0510   -2.4064   -7.4548 C.3       5 UNK         0.0660 
     19 N          24.8858   -1.7103   -6.9067 N.am      5 UNK        -0.4015 
     20 C          24.2993   -0.6722   -7.5225 C.2       4 UNK         0.4946 
     21 O          24.6827   -0.2101   -8.5989 O.2       4 UNK        -0.5353 
     22 CA         23.0992   -0.0260   -6.8129 C.3       4 UNK         0.0277 
     23 CB         21.8358   -0.8857   -6.9814 C.3       4 UNK        -0.1981 
     24 N          23.3459    0.2201   -5.3916 N.am      4 UNK        -0.4209 
     25 C          24.2527    1.0889   -4.9235 C.2       3 UNK         0.4942 
     26 O          24.9697    1.7875   -5.6399 O.2       3 UNK        -0.5208 
     27 CA         24.4095    1.1692   -3.3952 C.3       3 UNK         0.0250 
     28 CB         23.3741    2.1363   -2.7987 C.3       3 UNK        -0.1990 
     29 N          24.3345   -0.1229   -2.6996 N.am      3 UNK        -0.4232 
     30 C          25.1140   -1.1811   -2.9615 C.2       2 UNK         0.4993 
     31 O          25.8921   -1.2417   -3.9149 O.2       2 UNK        -0.5286 
     32 CA         25.0050   -2.3823   -2.0184 C.3       2 UNK         0.0209 
     33 CB         24.1309   -3.4850   -2.6377 C.3       2 UNK        -0.1931 
     34 N          26.3607   -2.8878   -1.8051 N.am      2 UNK        -0.4546 
     35 C          26.9685   -2.9406   -0.6148 C.2       1 UNK         0.5154 
     36 O          26.3871   -2.7551    0.4584 O.2       1 UNK        -0.5181 
     37 C          27.3356   -1.5663   -7.2975 C.2       5 UNK         0.5014 
     38 O          28.1739   -1.5974   -8.1952 O.2       5 UNK        -0.5248 
     39 N          27.4504   -0.7931   -6.2063 N.am      6 UNK        -0.4434 
     40 CA         28.5266    0.1724   -5.9704 C.3       6 UNK         0.0363 
     41 CB         28.4126    0.7474   -4.5519 C.3       6 UNK        -0.1936 
     42 C          28.5691    1.2924   -7.0165 C.2       6 UNK         0.5081 
     43 O          29.6584    1.6460   -7.4690 O.2       6 UNK        -0.5248 
     44 N          27.3931    1.7982   -7.4136 N.am      7 UNK        -0.4718 
     45 CA         27.2398    2.7603   -8.5057 C.3       7 UNK         0.0273 
     46 CB         25.8058    3.3123   -8.5151 C.3       7 UNK        -0.1935 
     47 C          27.6050    2.1608   -9.8739 C.2       7 UNK         0.5018 
     48 O          28.2769    2.8295  -10.6592 O.2       7 UNK        -0.5186 
     49 N          27.1807    0.9130  -10.1259 N.am      8 UNK        -0.4240 
     50 CA         27.4823    0.1686  -11.3528 C.3       8 UNK         0.0235 
     51 CB         26.6082   -1.0937  -11.4252 C.3       8 UNK        -0.2000 
     52 C          28.9731   -0.1892  -11.4870 C.2       8 UNK         0.4941 
     53 O          29.5441   -0.0056  -12.5626 O.2       8 UNK        -0.5273 
     54 N          29.5779   -0.6796  -10.3960 N.am      9 UNK        -0.4262 
     55 CA         30.9997   -1.0244  -10.3060 C.3       9 UNK         0.0264 
     56 CB         31.2248   -1.9145   -9.0718 C.3       9 UNK        -0.1955 
     57 C          31.9252    0.2029  -10.2435 C.2       9 UNK         0.5031 
     58 O          33.1085    0.0691  -10.5589 O.2       9 UNK        -0.5390 
     59 N          31.3783    1.3543   -9.8259 N.am      10 UNK        -0.4204 
     60 CA         32.0541    2.6270   -9.5625 C.3       10 UNK         0.0237 
     61 CB         32.6563    3.2236  -10.8531 C.3       10 UNK        -0.1985 
     62 C          33.0654    2.4990   -8.4087 C.2       10 UNK         0.4970 
     63 O          34.2348    2.8568   -8.5671 O.2       10 UNK        -0.4914 
     64 N          32.5900    1.9734   -7.2710 N.am      11 UNK        -0.4285 
     65 CA         33.3559    1.8476   -6.0208 C.3       11 UNK         0.1007 
     66 C          33.8059    3.2255   -5.4580 C.2       11 UNK         0.5703 
     67 N          34.9916    3.2979   -4.8680 N.am      11 UNK        -0.7361 
     68 O          33.0743    4.2130   -5.5121 O.2       11 UNK        -0.4986 
     69 C69        32.5671    1.0662   -4.9392 C.3       12 UNK        -0.0947 
     70 S70        32.2842   -0.6841   -5.3592 S.3       12 UNK        -0.2240 
     71 C71        31.6816   -1.2710   -3.7398 C.3       12 UNK         0.0194 
     72 H72        29.4533    0.6783    1.3335 H         1 UNK         0.0906 
     73 H73        30.4081   -0.7147    1.8468 H         1 UNK         0.0906 
     74 H74        30.9812    0.3094    0.5288 H         1 UNK         0.0906 
     75 H75        29.5290   -2.6467    1.1195 H         1 UNK         0.3140 
     76 H76        28.8544   -3.1025   -1.6228 H         1 UNK         0.1085 
     77 H77        28.2409   -4.9374    0.7543 H         1 UNK         0.0836 
     78 H78        28.3534   -5.4034   -0.9211 H         1 UNK         0.0836 
     79 H79        32.1198   -5.9943   -1.4768 H         1 UNK         0.0731 
     80 H80        30.5484   -6.7346   -1.6598 H         1 UNK         0.0731 
     81 H81        32.0863   -3.2909   -1.9505 H         1 UNK         0.1312 
     82 H82        29.9366   -2.3846   -5.5510 H         1 UNK         0.1406 
     83 H83        29.3724   -6.1590   -3.6297 H         1 UNK         0.1631 
     84 H84        28.8705   -4.2401   -6.7304 H         1 UNK         0.0717 
     85 H85        28.5581   -5.7706   -5.9455 H         1 UNK         0.0717 
     86 H86        26.7521   -4.4453   -7.7115 H         1 UNK         0.0934 
     87 H87        25.1856   -4.3501   -6.9909 H         1 UNK         0.0934 
     88 H88        25.8803   -2.4738   -8.5314 H         1 UNK         0.0739 
     89 H89        24.5735   -1.9929   -5.9890 H         1 UNK         0.3093 
     90 H90        22.9178    0.9394   -7.2910 H         1 UNK         0.0818 
     91 H91        20.9596   -0.3878   -6.5657 H         1 UNK         0.0819 
     92 H92        21.6295   -1.0710   -8.0366 H         1 UNK         0.0819 
     93 H93        21.9338   -1.8561   -6.4933 H         1 UNK         0.0819 
     94 H94        22.8038   -0.3126   -4.7271 H         1 UNK         0.3041 
     95 H95        25.4021    1.5783   -3.1971 H         1 UNK         0.0784 
     96 H96        23.4224    3.1102   -3.2884 H         1 UNK         0.0793 
     97 H97        22.3560    1.7630   -2.9157 H         1 UNK         0.0793 
     98 H98        23.5516    2.3030   -1.7361 H         1 UNK         0.0793 
     99 H99        23.7060   -0.1672   -1.9101 H         1 UNK         0.3024 
    100 H100       24.5545   -2.0571   -1.0778 H         1 UNK         0.1171 
    101 H101       24.0812   -4.3592   -1.9885 H         1 UNK         0.0786 
    102 H102       23.1092   -3.1347   -2.7890 H         1 UNK         0.0786 
    103 H103       24.5104   -3.8109   -3.6062 H         1 UNK         0.0786 
    104 H104       26.9078   -2.9839   -2.6521 H         1 UNK         0.2977 
    105 H105       26.7585   -0.8897   -5.4631 H         1 UNK         0.3127 
    106 H106       29.4744   -0.3551   -6.0492 H         1 UNK         0.0770 
    107 H107       27.4753    1.2846   -4.4108 H         1 UNK         0.0814 
    108 H108       29.2233    1.4454   -4.3432 H         1 UNK         0.0814 
    109 H109       28.4612   -0.0418   -3.8011 H         1 UNK         0.0814 
    110 H110       26.5450    1.5020   -6.9401 H         1 UNK         0.2983 
    111 H111       27.9231    3.5915   -8.3173 H         1 UNK         0.0947 
    112 H112       25.6713    4.0393   -9.3172 H         1 UNK         0.0806 
    113 H113       25.5707    3.8164   -7.5775 H         1 UNK         0.0806 
    114 H114       25.0684    2.5223   -8.6613 H         1 UNK         0.0806 
    115 H115       26.5951    0.4521   -9.4383 H         1 UNK         0.3000 
    116 H116       27.2192    0.8081  -12.1982 H         1 UNK         0.0850 
    117 H117       26.7636   -1.6200  -12.3678 H         1 UNK         0.0810 
    118 H118       25.5479   -0.8478  -11.3609 H         1 UNK         0.0810 
    119 H119       26.8392   -1.7928  -10.6218 H         1 UNK         0.0810 
    120 H120       29.0155   -0.8715   -9.5656 H         1 UNK         0.3040 
    121 H121       31.2696   -1.5965  -11.1961 H         1 UNK         0.0766 
    122 H122       30.6258   -2.8239   -9.1223 H         1 UNK         0.0812 
    123 H123       30.9638   -1.3940   -8.1492 H         1 UNK         0.0812 
    124 H124       32.2696   -2.2171   -8.9902 H         1 UNK         0.0812 
    125 H125       30.4120    1.3207   -9.5241 H         1 UNK         0.3205 
    126 H126       31.2802    3.3141   -9.2164 H         1 UNK         0.0754 
    127 H127       33.0546    4.2222  -10.6698 H         1 UNK         0.0769 
    128 H128       31.9021    3.3135  -11.6350 H         1 UNK         0.0769 
    129 H129       33.4733    2.6160  -11.2432 H         1 UNK         0.0769 
    130 H130       31.6034    1.7363   -7.2252 H         1 UNK         0.2981 
    131 H131       34.2569    1.2789   -6.2592 H         1 UNK         0.0541 
    132 H132       35.5943    2.4920   -4.8070 H         1 UNK         0.3459 
    133 H133       35.2939    4.1792   -4.4832 H         1 UNK         0.3459 
    134 H134       33.1066    1.0873   -3.9900 H         1 UNK         0.0612 
    135 H135       31.6029    1.5419   -4.7536 H         1 UNK         0.0612 
    136 H136       30.9087   -0.5911   -3.3790 H         1 UNK         0.0624 
    137 H137       32.5041   -1.2115   -3.0254 H         1 UNK         0.0624 
@<TRIPOS>BOND
     1    1    2 1    
     2    1   72 1    
     3    1   73 1    
     4    1   74 1    
     5    2    3 2    
     6    2    4 am   BACKBONE|DICT|INTERRES
     7    4    5 1    
     8    4   75 1    
     9    5    6 1    
    10    5   35 1    
    11    5   76 1    
    12    6    7 1    
    13    6   77 1    
    14    6   78 1    
    15    7    8 1    
    16    8    9 1    
    17    8   79 1    
    18    8   80 1    
    19    9   10 ar   
    20    9   14 ar   
    21   10   11 ar   
    22   10   81 1    
    23   11   12 ar   
    24   11   71 1    
    25   12   13 ar   
    26   12   82 1    
    27   13   14 ar   
    28   13   15 1    
    29   14   83 1    
    30   15   16 1    
    31   15   84 1    
    32   15   85 1    
    33   16   17 1    
    34   17   18 1    
    35   17   86 1    
    36   17   87 1    
    37   18   19 1    
    38   18   37 1    
    39   18   88 1    
    40   19   20 am   BACKBONE|DICT|INTERRES
    41   19   89 1    
    42   20   21 2    
    43   20   22 1    
    44   22   23 1    
    45   22   24 1    
    46   22   90 1    
    47   23   91 1    
    48   23   92 1    
    49   23   93 1    
    50   24   25 am   BACKBONE|DICT|INTERRES
    51   24   94 1    
    52   25   26 2    
    53   25   27 1    
    54   27   28 1    
    55   27   29 1    
    56   27   95 1    
    57   28   96 1    
    58   28   97 1    
    59   28   98 1    
    60   29   30 am   BACKBONE|DICT|INTERRES
    61   29   99 1    
    62   30   31 2    
    63   30   32 1    
    64   32   33 1    
    65   32   34 1    
    66   32  100 1    
    67   33  101 1    
    68   33  102 1    
    69   33  103 1    
    70   34   35 am   BACKBONE|DICT|INTERRES
    71   34  104 1    
    72   35   36 2    
    73   37   38 2    
    74   37   39 am   BACKBONE|DICT|INTERRES
    75   39   40 1    
    76   39  105 1    
    77   40   41 1    
    78   40   42 1    
    79   40  106 1    
    80   41  107 1    
    81   41  108 1    
    82   41  109 1    
    83   42   43 2    
    84   42   44 am   BACKBONE|DICT|INTERRES
    85   44   45 1    
    86   44  110 1    
    87   45   46 1    
    88   45   47 1    
    89   45  111 1    
    90   46  112 1    
    91   46  113 1    
    92   46  114 1    
    93   47   48 2    
    94   47   49 am   BACKBONE|DICT|INTERRES
    95   49   50 1    
    96   49  115 1    
    97   50   51 1    
    98   50   52 1    
    99   50  116 1    
   100   51  117 1    
   101   51  118 1    
   102   51  119 1    
   103   52   53 2    
   104   52   54 am   BACKBONE|DICT|INTERRES
   105   54   55 1    
   106   54  120 1    
   107   55   56 1    
   108   55   57 1    
   109   55  121 1    
   110   56  122 1    
   111   56  123 1    
   112   56  124 1    
   113   57   58 2    
   114   57   59 am   BACKBONE|DICT|INTERRES
   115   59   60 1    
   116   59  125 1    
   117   60   61 1    
   118   60   62 1    
   119   60  126 1    
   120   61  127 1    
   121   61  128 1    
   122   61  129 1    
   123   62   63 2    
   124   62   64 am   BACKBONE|DICT|INTERRES
   125   64   65 1    
   126   64  130 1    
   127   65   66 1    
   128   65   69 1    
   129   65  131 1    
   130   66   67 am   BACKBONE|DICT|INTERRES
   131   66   68 2    
   132   67  132 1    
   133   67  133 1    
   134   69   70 1    
   135   69  134 1    
   136   69  135 1    
   137   70   71 1    
   138   71  136 1    
   139   71  137 1    
@<TRIPOS>SUBSTRUCTURE
     1 UNK         1 GROUP             0       ****    0 ROOT    
