@<TRIPOS>MOLECULE
3R137
137   139    1
SMALL
USER_CHARGES


@<TRIPOS>ATOM
      1 CA         23.2833   -6.6880   -0.5815 C.3       0 UNK        -0.2020 
      2 C          24.4593   -5.8552   -0.0936 C.2       0 UNK         0.4855 
      3 O          24.4409   -5.3764    1.0403 O.2       0 UNK        -0.5197 
      4 N          25.4824   -5.6776   -0.9417 N.am      1 UNK        -0.4892 
      5 CA         26.6948   -4.9001   -0.6407 C.3       1 UNK         0.0835 
      6 C6         27.8408   -5.2414   -1.6349 C.3       12 UNK        -0.0855 
      7 S7         29.4697   -5.3331   -0.8205 S.3       12 UNK        -0.2931 
      8 C8         30.5905   -4.8564   -2.1852 C.3       12 UNK         0.0378 
      9 C9         30.8107   -3.3547   -2.3933 C.ar      12 UNK        -0.0802 
     10 C10        31.7197   -2.9550   -3.3796 C.ar      12 UNK        -0.0944 
     11 C11        31.9941   -1.6017   -3.5974 C.ar      12 UNK        -0.0787 
     12 C12        31.3558   -0.6380   -2.8144 C.ar      12 UNK        -0.0862 
     13 C13        30.4235   -1.0122   -1.8438 C.ar      12 UNK        -0.0733 
     14 C14        30.1604   -2.3694   -1.6361 C.ar      12 UNK        -0.0832 
     15 C15        29.7257    0.0410   -0.9921 C.3       12 UNK         0.0240 
     16 S16        28.2261    0.7039   -1.7904 S.3       12 UNK        -0.2522 
     17 C17        28.9250    1.8862   -2.9980 C.3       12 UNK        -0.0967 
     18 CA         28.5860    1.6132   -4.4936 C.3       5 UNK         0.0660 
     19 N          28.3181    0.2059   -4.8088 N.am      5 UNK        -0.4015 
     20 C          28.3578   -0.3145   -6.0431 C.2       4 UNK         0.4946 
     21 O          28.6507    0.3308   -7.0486 O.2       4 UNK        -0.5353 
     22 CA         27.9491   -1.7883   -6.1919 C.3       4 UNK         0.0277 
     23 CB         29.0054   -2.7258   -5.5902 C.3       4 UNK        -0.1981 
     24 N          26.6410   -2.0703   -5.6012 N.am      4 UNK        -0.4209 
     25 C          25.4848   -1.5408   -6.0257 C.2       3 UNK         0.4942 
     26 O          25.3911   -0.7650   -6.9753 O.2       3 UNK        -0.5208 
     27 CA         24.2178   -1.9195   -5.2408 C.3       3 UNK         0.0250 
     28 CB         23.5891   -3.1958   -5.8226 C.3       3 UNK        -0.1990 
     29 N          24.4373   -2.0954   -3.8015 N.am      3 UNK        -0.4232 
     30 C          24.8986   -1.1461   -2.9706 C.2       2 UNK         0.4993 
     31 O          25.2316   -0.0217   -3.3439 O.2       2 UNK        -0.5286 
     32 CA         25.0347   -1.5168   -1.4871 C.3       2 UNK         0.0209 
     33 CB         23.7257   -1.2281   -0.7340 C.3       2 UNK        -0.1931 
     34 N          25.4003   -2.9263   -1.3192 N.am      2 UNK        -0.4546 
     35 C          26.4269   -3.3779   -0.5871 C.2       1 UNK         0.5154 
     36 O          27.1430   -2.6560    0.1067 O.2       1 UNK        -0.5181 
     37 C          27.4926    2.5611   -5.0273 C.2       5 UNK         0.5014 
     38 O          27.8241    3.6909   -5.3894 O.2       5 UNK        -0.5248 
     39 N          26.2320    2.1041   -5.0982 N.am      6 UNK        -0.4434 
     40 CA         25.1315    2.8444   -5.7253 C.3       6 UNK         0.0363 
     41 CB         23.7905    2.1574   -5.4263 C.3       6 UNK        -0.1936 
     42 C          25.3279    3.0255   -7.2419 C.2       6 UNK         0.5081 
     43 O          25.0908    4.1208   -7.7525 O.2       6 UNK        -0.5248 
     44 N          25.7750    1.9647   -7.9305 N.am      7 UNK        -0.4718 
     45 CA         26.1538    1.9989   -9.3464 C.3       7 UNK         0.0273 
     46 CB         26.2597    0.5626   -9.8838 C.3       7 UNK        -0.1935 
     47 C          27.4693    2.7580   -9.5883 C.2       7 UNK         0.5018 
     48 O          27.6085    3.4100  -10.6242 O.2       7 UNK        -0.5186 
     49 N          28.4123    2.6389   -8.6425 N.am      8 UNK        -0.4240 
     50 CA         29.7532    3.2333   -8.5734 C.3       8 UNK         0.0235 
     51 CB         29.7060    4.7725   -8.6167 C.3       8 UNK        -0.2000 
     52 C          30.7338    2.6634   -9.6093 C.2       8 UNK         0.4941 
     53 O          31.8249    2.2354   -9.2338 O.2       8 UNK        -0.5273 
     54 N          30.3221    2.6186  -10.8835 N.am      9 UNK        -0.4262 
     55 CA         31.0767    2.0450  -12.0038 C.3       9 UNK         0.0264 
     56 CB         30.3197    2.3116  -13.3142 C.3       9 UNK        -0.1955 
     57 C          31.3639    0.5410  -11.8427 C.2       9 UNK         0.5031 
     58 O          32.3860    0.0623  -12.3361 O.2       9 UNK        -0.5390 
     59 N          30.4846   -0.1640  -11.1161 N.am      10 UNK        -0.4204 
     60 CA         30.6189   -1.5732  -10.7395 C.3       10 UNK         0.0237 
     61 CB         29.3376   -2.0174  -10.0173 C.3       10 UNK        -0.1985 
     62 C          31.8546   -1.8753   -9.8698 C.2       10 UNK         0.4970 
     63 O          32.3362   -3.0085   -9.8972 O.2       10 UNK        -0.4914 
     64 N          32.3519   -0.8716   -9.1346 N.am      11 UNK        -0.4285 
     65 CA         33.5941   -0.9489   -8.3524 C.3       11 UNK         0.1007 
     66 C          34.8851   -0.7643   -9.2047 C.2       11 UNK         0.5703 
     67 N          34.8076   -0.4598  -10.4965 N.am      11 UNK        -0.7361 
     68 O          35.9875   -0.9170   -8.6839 O.2       11 UNK        -0.4986 
     69 C69        33.5710    0.0209   -7.1417 C.3       12 UNK        -0.0947 
     70 S70        32.1640   -0.2902   -6.0239 S.3       12 UNK        -0.2240 
     71 C71        32.9898   -1.1729   -4.6648 C.3       12 UNK         0.0194 
     72 H72        23.1395   -7.5504    0.0694 H         1 UNK         0.0906 
     73 H73        22.3702   -6.0933   -0.5649 H         1 UNK         0.0906 
     74 H74        23.4326   -7.0525   -1.5978 H         1 UNK         0.0906 
     75 H75        25.4508   -6.1164   -1.8518 H         1 UNK         0.3140 
     76 H76        27.0063   -5.1927    0.3651 H         1 UNK         0.1085 
     77 H77        27.8769   -4.5400   -2.4716 H         1 UNK         0.0836 
     78 H78        27.6776   -6.2214   -2.0868 H         1 UNK         0.0836 
     79 H79        30.2313   -5.3003   -3.1150 H         1 UNK         0.0731 
     80 H80        31.5602   -5.3147   -1.9853 H         1 UNK         0.0731 
     81 H81        32.2222   -3.7039   -3.9769 H         1 UNK         0.1312 
     82 H82        31.5901    0.4041   -2.9733 H         1 UNK         0.1406 
     83 H83        29.4568   -2.6457   -0.8663 H         1 UNK         0.1631 
     84 H84        30.4123    0.8551   -0.7551 H         1 UNK         0.0717 
     85 H85        29.4373   -0.3938   -0.0336 H         1 UNK         0.0717 
     86 H86        28.6123    2.8876   -2.6937 H         1 UNK         0.0934 
     87 H87        30.0068    1.9124   -2.8821 H         1 UNK         0.0934 
     88 H88        29.4833    1.8770   -5.0595 H         1 UNK         0.0739 
     89 H89        28.0483   -0.3729   -4.0265 H         1 UNK         0.3093 
     90 H90        27.8761   -2.0038   -7.2591 H         1 UNK         0.0818 
     91 H91        28.7773   -3.7708   -5.7997 H         1 UNK         0.0819 
     92 H92        29.9926   -2.5209   -6.0068 H         1 UNK         0.0819 
     93 H93        29.0756   -2.6075   -4.5094 H         1 UNK         0.0819 
     94 H94        26.6169   -2.6984   -4.8124 H         1 UNK         0.3041 
     95 H95        23.5012   -1.1057   -5.3629 H         1 UNK         0.0784 
     96 H96        23.3960   -3.0825   -6.8905 H         1 UNK         0.0793 
     97 H97        24.2407   -4.0620   -5.7001 H         1 UNK         0.0793 
     98 H98        22.6345   -3.4219   -5.3469 H         1 UNK         0.0793 
     99 H99        24.1518   -2.9822   -3.4186 H         1 UNK         0.3024 
    100 H100       25.8150   -0.8748   -1.0727 H         1 UNK         0.1171 
    101 H101       23.8353   -1.4225    0.3331 H         1 UNK         0.0786 
    102 H102       23.4347   -0.1825   -0.8445 H         1 UNK         0.0786 
    103 H103       22.9009   -1.8392   -1.1022 H         1 UNK         0.0786 
    104 H104       24.8502   -3.6137   -1.8103 H         1 UNK         0.2977 
    105 H105       26.0067    1.2022   -4.6866 H         1 UNK         0.3127 
    106 H106       25.1052    3.8387   -5.2742 H         1 UNK         0.0770 
    107 H107       23.7370    1.1673   -5.8768 H         1 UNK         0.0814 
    108 H108       22.9589    2.7400   -5.8246 H         1 UNK         0.0814 
    109 H109       23.6277    2.0497   -4.3538 H         1 UNK         0.0814 
    110 H110       25.8737    1.0720   -7.4534 H         1 UNK         0.2983 
    111 H111       25.3674    2.5158   -9.9008 H         1 UNK         0.0947 
    112 H112       27.0035   -0.0180   -9.3371 H         1 UNK         0.0806 
    113 H113       26.5437    0.5556  -10.9370 H         1 UNK         0.0806 
    114 H114       25.3067    0.0398   -9.8009 H         1 UNK         0.0806 
    115 H115       28.2296    1.9607   -7.9055 H         1 UNK         0.3000 
    116 H116       30.1391    2.9483   -7.5929 H         1 UNK         0.0850 
    117 H117       30.6995    5.1949   -8.4618 H         1 UNK         0.0810 
    118 H118       29.0595    5.1666   -7.8321 H         1 UNK         0.0810 
    119 H119       29.3402    5.1478   -9.5727 H         1 UNK         0.0810 
    120 H120       29.3936    2.9858  -11.0808 H         1 UNK         0.3040 
    121 H121       32.0397    2.5577  -12.0502 H         1 UNK         0.0766 
    122 H122       30.8665    1.9119  -14.1696 H         1 UNK         0.0812 
    123 H123       30.1885    3.3801  -13.4860 H         1 UNK         0.0812 
    124 H124       29.3321    1.8485  -13.3119 H         1 UNK         0.0812 
    125 H125       29.6844    0.3275  -10.7474 H         1 UNK         0.3205 
    126 H126       30.7181   -2.1537  -11.6590 H         1 UNK         0.0754 
    127 H127       29.3957   -3.0655   -9.7199 H         1 UNK         0.0769 
    128 H128       28.4609   -1.9106  -10.6564 H         1 UNK         0.0769 
    129 H129       29.1712   -1.4297   -9.1147 H         1 UNK         0.0769 
    130 H130       31.9211    0.0437   -9.1757 H         1 UNK         0.2981 
    131 H131       33.6647   -1.9584   -7.9428 H         1 UNK         0.0541 
    132 H132       35.6589   -0.3527  -11.0245 H         1 UNK         0.3459 
    133 H133       33.9138   -0.3380  -10.9572 H         1 UNK         0.3459 
    134 H134       34.4977   -0.0504   -6.5694 H         1 UNK         0.0612 
    135 H135       33.5093    1.0548   -7.4844 H         1 UNK         0.0612 
    136 H136       33.5188   -2.0369   -5.0703 H         1 UNK         0.0624 
    137 H137       33.7438   -0.5244   -4.2164 H         1 UNK         0.0624 
@<TRIPOS>BOND
     1    1    2 1    
     2    1   72 1    
     3    1   73 1    
     4    1   74 1    
     5    2    3 2    
     6    2    4 am   BACKBONE|DICT|INTERRES
     7    4    5 1    
     8    4   75 1    
     9    5    6 1    
    10    5   35 1    
    11    5   76 1    
    12    6    7 1    
    13    6   77 1    
    14    6   78 1    
    15    7    8 1    
    16    8    9 1    
    17    8   79 1    
    18    8   80 1    
    19    9   10 ar   
    20    9   14 ar   
    21   10   11 ar   
    22   10   81 1    
    23   11   12 ar   
    24   11   71 1    
    25   12   13 ar   
    26   12   82 1    
    27   13   14 ar   
    28   13   15 1    
    29   14   83 1    
    30   15   16 1    
    31   15   84 1    
    32   15   85 1    
    33   16   17 1    
    34   17   18 1    
    35   17   86 1    
    36   17   87 1    
    37   18   19 1    
    38   18   37 1    
    39   18   88 1    
    40   19   20 am   BACKBONE|DICT|INTERRES
    41   19   89 1    
    42   20   21 2    
    43   20   22 1    
    44   22   23 1    
    45   22   24 1    
    46   22   90 1    
    47   23   91 1    
    48   23   92 1    
    49   23   93 1    
    50   24   25 am   BACKBONE|DICT|INTERRES
    51   24   94 1    
    52   25   26 2    
    53   25   27 1    
    54   27   28 1    
    55   27   29 1    
    56   27   95 1    
    57   28   96 1    
    58   28   97 1    
    59   28   98 1    
    60   29   30 am   BACKBONE|DICT|INTERRES
    61   29   99 1    
    62   30   31 2    
    63   30   32 1    
    64   32   33 1    
    65   32   34 1    
    66   32  100 1    
    67   33  101 1    
    68   33  102 1    
    69   33  103 1    
    70   34   35 am   BACKBONE|DICT|INTERRES
    71   34  104 1    
    72   35   36 2    
    73   37   38 2    
    74   37   39 am   BACKBONE|DICT|INTERRES
    75   39   40 1    
    76   39  105 1    
    77   40   41 1    
    78   40   42 1    
    79   40  106 1    
    80   41  107 1    
    81   41  108 1    
    82   41  109 1    
    83   42   43 2    
    84   42   44 am   BACKBONE|DICT|INTERRES
    85   44   45 1    
    86   44  110 1    
    87   45   46 1    
    88   45   47 1    
    89   45  111 1    
    90   46  112 1    
    91   46  113 1    
    92   46  114 1    
    93   47   48 2    
    94   47   49 am   BACKBONE|DICT|INTERRES
    95   49   50 1    
    96   49  115 1    
    97   50   51 1    
    98   50   52 1    
    99   50  116 1    
   100   51  117 1    
   101   51  118 1    
   102   51  119 1    
   103   52   53 2    
   104   52   54 am   BACKBONE|DICT|INTERRES
   105   54   55 1    
   106   54  120 1    
   107   55   56 1    
   108   55   57 1    
   109   55  121 1    
   110   56  122 1    
   111   56  123 1    
   112   56  124 1    
   113   57   58 2    
   114   57   59 am   BACKBONE|DICT|INTERRES
   115   59   60 1    
   116   59  125 1    
   117   60   61 1    
   118   60   62 1    
   119   60  126 1    
   120   61  127 1    
   121   61  128 1    
   122   61  129 1    
   123   62   63 2    
   124   62   64 am   BACKBONE|DICT|INTERRES
   125   64   65 1    
   126   64  130 1    
   127   65   66 1    
   128   65   69 1    
   129   65  131 1    
   130   66   67 am   BACKBONE|DICT|INTERRES
   131   66   68 2    
   132   67  132 1    
   133   67  133 1    
   134   69   70 1    
   135   69  134 1    
   136   69  135 1    
   137   70   71 1    
   138   71  136 1    
   139   71  137 1    
@<TRIPOS>SUBSTRUCTURE
     1 UNK         1 GROUP             0       ****    0 ROOT    
