@<TRIPOS>MOLECULE
3R137
137   139    1
SMALL
USER_CHARGES


@<TRIPOS>ATOM
      1 CA         29.5924    1.4350   -2.0617 C.3       0 UNK        -0.2020 
      2 C          29.2551   -0.0265   -2.3157 C.2       0 UNK         0.4855 
      3 O          29.1365   -0.4311   -3.4686 O.2       0 UNK        -0.5197 
      4 N          29.1173   -0.8219   -1.2467 N.am      1 UNK        -0.4892 
      5 CA         28.8250   -2.2589   -1.3138 C.3       1 UNK         0.0835 
      6 C6         29.2200   -2.9494    0.0215 C.3       12 UNK        -0.0855 
      7 S7         29.0645   -4.7699    0.0516 S.3       12 UNK        -0.2931 
      8 C8         30.6893   -5.3074   -0.5850 C.3       12 UNK         0.0378 
      9 C9         30.8914   -4.8924   -2.0357 C.ar      12 UNK        -0.0802 
     10 C10        31.9603   -4.0677   -2.3979 C.ar      12 UNK        -0.0944 
     11 C11        32.0986   -3.6315   -3.7187 C.ar      12 UNK        -0.0787 
     12 C12        31.1654   -4.0322   -4.6807 C.ar      12 UNK        -0.0862 
     13 C13        30.0731   -4.8350   -4.3259 C.ar      12 UNK        -0.0733 
     14 C14        29.9674   -5.2858   -3.0082 C.ar      12 UNK        -0.0832 
     15 C15        28.9704   -5.2246   -5.3124 C.3       12 UNK         0.0240 
     16 S16        28.7347   -4.0959   -6.7275 S.3       12 UNK        -0.2522 
     17 C17        28.4348   -2.4865   -5.9182 C.3       12 UNK        -0.0967 
     18 CA         27.5544   -1.5790   -6.8099 C.3       5 UNK         0.0660 
     19 N          26.1270   -1.8737   -6.6733 N.am      5 UNK        -0.4015 
     20 C          25.1976   -1.4954   -7.5606 C.2       4 UNK         0.4946 
     21 O          25.4449   -0.8677   -8.5920 O.2       4 UNK        -0.5353 
     22 CA         23.7415   -1.8486   -7.2171 C.3       4 UNK         0.0277 
     23 CB         23.4914   -3.3601   -7.3505 C.3       4 UNK        -0.1981 
     24 N          23.3466   -1.3936   -5.8807 N.am      4 UNK        -0.4209 
     25 C          23.2939   -0.1065   -5.5103 C.2       3 UNK         0.4942 
     26 O          23.5868    0.8324   -6.2482 O.2       3 UNK        -0.5208 
     27 CA         22.8515    0.1983   -4.0707 C.3       3 UNK         0.0250 
     28 CB         21.3170    0.2208   -3.9781 C.3       3 UNK        -0.1990 
     29 N          23.3900   -0.6865   -3.0311 N.am      3 UNK        -0.4232 
     30 C          24.6799   -0.9986   -2.8378 C.2       2 UNK         0.4993 
     31 O          25.5811   -0.7268   -3.6346 O.2       2 UNK        -0.5286 
     32 CA         24.9924   -1.6895   -1.4972 C.3       2 UNK         0.0209 
     33 CB         24.3267   -3.0795   -1.3877 C.3       2 UNK        -0.1931 
     34 N          26.4320   -1.7380   -1.2016 N.am      2 UNK        -0.4546 
     35 C          27.3662   -2.5347   -1.7443 C.2       1 UNK         0.5154 
     36 O          27.1285   -3.4346   -2.5516 O.2       1 UNK        -0.5181 
     37 C          27.8552   -0.0840   -6.5972 C.2       5 UNK         0.5014 
     38 O          28.7410    0.4369   -7.2788 O.2       5 UNK        -0.5248 
     39 N          27.1007    0.5883   -5.7138 N.am      6 UNK        -0.4434 
     40 CA         27.1916    2.0298   -5.4778 C.3       6 UNK         0.0363 
     41 CB         26.3320    2.4202   -4.2652 C.3       6 UNK        -0.1936 
     42 C          26.7950    2.8543   -6.7130 C.2       6 UNK         0.5081 
     43 O          27.5258    3.7744   -7.0788 O.2       6 UNK        -0.5248 
     44 N          25.6702    2.4974   -7.3518 N.am      7 UNK        -0.4718 
     45 CA         25.1769    3.1309   -8.5793 C.3       7 UNK         0.0273 
     46 CB         23.7496    2.6471   -8.8789 C.3       7 UNK        -0.1935 
     47 C          26.0919    2.8847   -9.7886 C.2       7 UNK         0.5018 
     48 O          26.2872    3.7965  -10.5931 O.2       7 UNK        -0.5186 
     49 N          26.6522    1.6708   -9.8840 N.am      8 UNK        -0.4240 
     50 CA         27.6344    1.2956  -10.9044 C.3       8 UNK         0.0235 
     51 CB         27.7465   -0.2371  -10.9481 C.3       8 UNK        -0.2000 
     52 C          29.0252    1.9205  -10.6828 C.2       8 UNK         0.4941 
     53 O          29.8093    1.9670  -11.6313 O.2       8 UNK        -0.5273 
     54 N          29.3161    2.3464   -9.4423 N.am      9 UNK        -0.4262 
     55 CA         30.6220    2.7737   -8.9218 C.3       9 UNK         0.0264 
     56 CB         31.0789    4.0945   -9.5755 C.3       9 UNK        -0.1955 
     57 C          31.6712    1.6478   -9.0234 C.2       9 UNK         0.5031 
     58 O          32.8276    1.9000   -9.3707 O.2       9 UNK        -0.5390 
     59 N          31.2325    0.4134   -8.7362 N.am      10 UNK        -0.4204 
     60 CA         31.9732   -0.8284   -8.9797 C.3       10 UNK         0.0237 
     61 CB         31.0441   -2.0246   -8.7311 C.3       10 UNK        -0.1985 
     62 C          33.2621   -0.9750   -8.1561 C.2       10 UNK         0.4970 
     63 O          34.1806   -1.6655   -8.5997 O.2       10 UNK        -0.4914 
     64 N          33.3099   -0.3293   -6.9856 N.am      11 UNK        -0.4285 
     65 CA         34.4813   -0.3007   -6.0983 C.3       11 UNK         0.1007 
     66 C          35.6152    0.6568   -6.5716 C.2       11 UNK         0.5703 
     67 N          35.4202    1.4725   -7.6032 N.am      11 UNK        -0.7361 
     68 O          36.6997    0.6528   -5.9939 O.2       11 UNK        -0.4986 
     69 C69        34.0943   -0.0272   -4.6179 C.3       12 UNK        -0.0947 
     70 S70        32.6453   -0.9618   -4.0181 S.3       12 UNK        -0.2240 
     71 C71        33.2241   -2.6838   -4.1010 C.3       12 UNK         0.0194 
     72 H72        28.8614    2.0817   -2.5442 H         1 UNK         0.0906 
     73 H73        30.5736    1.6651   -2.4764 H         1 UNK         0.0906 
     74 H74        29.6078    1.6735   -0.9986 H         1 UNK         0.0906 
     75 H75        29.2399   -0.4347   -0.3217 H         1 UNK         0.3140 
     76 H76        29.4535   -2.6626   -2.1080 H         1 UNK         0.1085 
     77 H77        28.6131   -2.5549    0.8384 H         1 UNK         0.0836 
     78 H78        30.2513   -2.6961    0.2731 H         1 UNK         0.0836 
     79 H79        31.4778   -4.9070    0.0542 H         1 UNK         0.0731 
     80 H80        30.7560   -6.3939   -0.5151 H         1 UNK         0.0731 
     81 H81        32.6681   -3.7394   -1.6489 H         1 UNK         0.1312 
     82 H82        31.2752   -3.6800   -5.6964 H         1 UNK         0.1406 
     83 H83        29.1256   -5.9013   -2.7198 H         1 UNK         0.1631 
     84 H84        28.0169   -5.2958   -4.7860 H         1 UNK         0.0717 
     85 H85        29.1866   -6.2215   -5.6980 H         1 UNK         0.0717 
     86 H86        27.9807   -2.6300   -4.9365 H         1 UNK         0.0934 
     87 H87        29.4074   -2.0296   -5.7251 H         1 UNK         0.0934 
     88 H88        27.8232   -1.7753   -7.8502 H         1 UNK         0.0739 
     89 H89        25.8384   -2.3342   -5.8224 H         1 UNK         0.3093 
     90 H90        23.1038   -1.3367   -7.9414 H         1 UNK         0.0818 
     91 H91        23.7798   -3.7162   -8.3406 H         1 UNK         0.0819 
     92 H92        24.0600   -3.9358   -6.6191 H         1 UNK         0.0819 
     93 H93        22.4362   -3.5997   -7.2180 H         1 UNK         0.0819 
     94 H94        23.0976   -2.0993   -5.2031 H         1 UNK         0.3041 
     95 H95        23.2099    1.2023   -3.8371 H         1 UNK         0.0784 
     96 H96        20.8895    0.8860   -4.7302 H         1 UNK         0.0793 
     97 H97        20.8874   -0.7691   -4.1369 H         1 UNK         0.0793 
     98 H98        20.9817    0.5810   -3.0053 H         1 UNK         0.0793 
     99 H99        22.7277   -0.9758   -2.3257 H         1 UNK         0.3024 
    100 H100       24.5639   -1.0569   -0.7178 H         1 UNK         0.1171 
    101 H101       23.2397   -2.9970   -1.3694 H         1 UNK         0.0786 
    102 H102       24.5830   -3.7242   -2.2289 H         1 UNK         0.0786 
    103 H103       24.6235   -3.5908   -0.4718 H         1 UNK         0.0786 
    104 H104       26.7653   -1.0062   -0.5906 H         1 UNK         0.2977 
    105 H105       26.4539    0.0691   -5.1233 H         1 UNK         0.3127 
    106 H106       28.2339    2.2555   -5.2422 H         1 UNK         0.0770 
    107 H107       25.2721    2.2518   -4.4529 H         1 UNK         0.0814 
    108 H108       26.4570    3.4763   -4.0235 H         1 UNK         0.0814 
    109 H109       26.6070    1.8472   -3.3801 H         1 UNK         0.0814 
    110 H110       25.0933    1.7536   -6.9637 H         1 UNK         0.2983 
    111 H111       25.1427    4.2090   -8.4079 H         1 UNK         0.0947 
    112 H112       23.7120    1.5654   -9.0167 H         1 UNK         0.0806 
    113 H113       23.3614    3.1080   -9.7882 H         1 UNK         0.0806 
    114 H114       23.0669    2.9037   -8.0687 H         1 UNK         0.0806 
    115 H115       26.3841    0.9548   -9.2163 H         1 UNK         0.3000 
    116 H116       27.2708    1.6407  -11.8747 H         1 UNK         0.0850 
    117 H117       28.4500   -0.5583  -11.7175 H         1 UNK         0.0810 
    118 H118       26.7853   -0.6994  -11.1735 H         1 UNK         0.0810 
    119 H119       28.0957   -0.6401   -9.9973 H         1 UNK         0.0810 
    120 H120       28.6001    2.2278   -8.7359 H         1 UNK         0.3040 
    121 H121       30.4768    2.9625   -7.8570 H         1 UNK         0.0766 
    122 H122       31.3010    3.9680  -10.6354 H         1 UNK         0.0812 
    123 H123       31.9837    4.4725   -9.0980 H         1 UNK         0.0812 
    124 H124       30.3155    4.8667   -9.4815 H         1 UNK         0.0812 
    125 H125       30.2858    0.3254   -8.3705 H         1 UNK         0.3205 
    126 H126       32.2609   -0.8328  -10.0330 H         1 UNK         0.0754 
    127 H127       31.5476   -2.9672   -8.9503 H         1 UNK         0.0769 
    128 H128       30.1537   -1.9798   -9.3581 H         1 UNK         0.0769 
    129 H129       30.7236   -2.0616   -7.6912 H         1 UNK         0.0769 
    130 H130       32.5099    0.2093   -6.6903 H         1 UNK         0.2981 
    131 H131       34.9276   -1.2959   -6.1266 H         1 UNK         0.0541 
    132 H132       36.1684    2.0805   -7.8954 H         1 UNK         0.3459 
    133 H133       34.5388    1.4857   -8.1017 H         1 UNK         0.3459 
    134 H134       33.8666    1.0314   -4.4804 H         1 UNK         0.0612 
    135 H135       34.9370   -0.2435   -3.9589 H         1 UNK         0.0612 
    136 H136       33.5662   -2.9126   -5.1109 H         1 UNK         0.0624 
    137 H137       34.0813   -2.8142   -3.4389 H         1 UNK         0.0624 
@<TRIPOS>BOND
     1    1    2 1    
     2    1   72 1    
     3    1   73 1    
     4    1   74 1    
     5    2    3 2    
     6    2    4 am   BACKBONE|DICT|INTERRES
     7    4    5 1    
     8    4   75 1    
     9    5    6 1    
    10    5   35 1    
    11    5   76 1    
    12    6    7 1    
    13    6   77 1    
    14    6   78 1    
    15    7    8 1    
    16    8    9 1    
    17    8   79 1    
    18    8   80 1    
    19    9   10 ar   
    20    9   14 ar   
    21   10   11 ar   
    22   10   81 1    
    23   11   12 ar   
    24   11   71 1    
    25   12   13 ar   
    26   12   82 1    
    27   13   14 ar   
    28   13   15 1    
    29   14   83 1    
    30   15   16 1    
    31   15   84 1    
    32   15   85 1    
    33   16   17 1    
    34   17   18 1    
    35   17   86 1    
    36   17   87 1    
    37   18   19 1    
    38   18   37 1    
    39   18   88 1    
    40   19   20 am   BACKBONE|DICT|INTERRES
    41   19   89 1    
    42   20   21 2    
    43   20   22 1    
    44   22   23 1    
    45   22   24 1    
    46   22   90 1    
    47   23   91 1    
    48   23   92 1    
    49   23   93 1    
    50   24   25 am   BACKBONE|DICT|INTERRES
    51   24   94 1    
    52   25   26 2    
    53   25   27 1    
    54   27   28 1    
    55   27   29 1    
    56   27   95 1    
    57   28   96 1    
    58   28   97 1    
    59   28   98 1    
    60   29   30 am   BACKBONE|DICT|INTERRES
    61   29   99 1    
    62   30   31 2    
    63   30   32 1    
    64   32   33 1    
    65   32   34 1    
    66   32  100 1    
    67   33  101 1    
    68   33  102 1    
    69   33  103 1    
    70   34   35 am   BACKBONE|DICT|INTERRES
    71   34  104 1    
    72   35   36 2    
    73   37   38 2    
    74   37   39 am   BACKBONE|DICT|INTERRES
    75   39   40 1    
    76   39  105 1    
    77   40   41 1    
    78   40   42 1    
    79   40  106 1    
    80   41  107 1    
    81   41  108 1    
    82   41  109 1    
    83   42   43 2    
    84   42   44 am   BACKBONE|DICT|INTERRES
    85   44   45 1    
    86   44  110 1    
    87   45   46 1    
    88   45   47 1    
    89   45  111 1    
    90   46  112 1    
    91   46  113 1    
    92   46  114 1    
    93   47   48 2    
    94   47   49 am   BACKBONE|DICT|INTERRES
    95   49   50 1    
    96   49  115 1    
    97   50   51 1    
    98   50   52 1    
    99   50  116 1    
   100   51  117 1    
   101   51  118 1    
   102   51  119 1    
   103   52   53 2    
   104   52   54 am   BACKBONE|DICT|INTERRES
   105   54   55 1    
   106   54  120 1    
   107   55   56 1    
   108   55   57 1    
   109   55  121 1    
   110   56  122 1    
   111   56  123 1    
   112   56  124 1    
   113   57   58 2    
   114   57   59 am   BACKBONE|DICT|INTERRES
   115   59   60 1    
   116   59  125 1    
   117   60   61 1    
   118   60   62 1    
   119   60  126 1    
   120   61  127 1    
   121   61  128 1    
   122   61  129 1    
   123   62   63 2    
   124   62   64 am   BACKBONE|DICT|INTERRES
   125   64   65 1    
   126   64  130 1    
   127   65   66 1    
   128   65   69 1    
   129   65  131 1    
   130   66   67 am   BACKBONE|DICT|INTERRES
   131   66   68 2    
   132   67  132 1    
   133   67  133 1    
   134   69   70 1    
   135   69  134 1    
   136   69  135 1    
   137   70   71 1    
   138   71  136 1    
   139   71  137 1    
@<TRIPOS>SUBSTRUCTURE
     1 UNK         1 GROUP             0       ****    0 ROOT    
