@<TRIPOS>MOLECULE
3R137
137   139    1
SMALL
USER_CHARGES


@<TRIPOS>ATOM
      1 CA         28.0419   -4.0037    2.3896 C.3       0 UNK        -0.2020 
      2 C          27.4485   -2.7637    1.7381 C.2       0 UNK         0.4855 
      3 O          26.6563   -2.0616    2.3668 O.2       0 UNK        -0.5197 
      4 N          27.8287   -2.4888    0.4832 N.am      1 UNK        -0.4892 
      5 CA         27.3577   -1.3413   -0.3066 C.3       1 UNK         0.0835 
      6 C6         28.2289   -1.0941   -1.5639 C.3       12 UNK        -0.0855 
      7 S7         29.9856   -0.7871   -1.1680 S.3       12 UNK        -0.2931 
      8 C8         30.7611   -2.4210   -1.3994 C.3       12 UNK         0.0378 
      9 C9         30.8417   -2.8562   -2.8580 C.ar      12 UNK        -0.0802 
     10 C10        31.9488   -2.5046   -3.6381 C.ar      12 UNK        -0.0944 
     11 C11        32.0827   -2.9949   -4.9411 C.ar      12 UNK        -0.0787 
     12 C12        31.0782   -3.8080   -5.4779 C.ar      12 UNK        -0.0862 
     13 C13        29.9624   -4.1603   -4.7120 C.ar      12 UNK        -0.0733 
     14 C14        29.8550   -3.6860   -3.4015 C.ar      12 UNK        -0.0832 
     15 C15        28.9168   -5.1222   -5.2655 C.3       12 UNK         0.0240 
     16 S16        27.9147   -4.4066   -6.6068 S.3       12 UNK        -0.2522 
     17 C17        26.9189   -3.1535   -5.7272 C.3       12 UNK        -0.0967 
     18 CA         26.6960   -1.8758   -6.5747 C.3       5 UNK         0.0660 
     19 N          25.6107   -1.0418   -6.0390 N.am      5 UNK        -0.4015 
     20 C          25.1522    0.0889   -6.6071 C.2       4 UNK         0.4946 
     21 O          25.6671    0.6095   -7.5976 O.2       4 UNK        -0.5353 
     22 CA         23.9003    0.7331   -5.9892 C.3       4 UNK         0.0277 
     23 CB         23.1564    1.6653   -6.9655 C.3       4 UNK        -0.1981 
     24 N          22.9956   -0.3135   -5.5261 N.am      4 UNK        -0.4209 
     25 C          22.3196   -0.2978   -4.3745 C.2       3 UNK         0.4942 
     26 O          22.2470    0.6789   -3.6269 O.2       3 UNK        -0.5208 
     27 CA         21.6495   -1.6187   -3.9522 C.3       3 UNK         0.0250 
     28 CB         21.5208   -2.6614   -5.0879 C.3       3 UNK        -0.1990 
     29 N          22.3376   -2.2092   -2.7984 N.am      3 UNK        -0.4232 
     30 C          23.6454   -2.4947   -2.6911 C.2       2 UNK         0.4993 
     31 O          24.4755   -2.3367   -3.5941 O.2       2 UNK        -0.5286 
     32 CA         24.0826   -3.1020   -1.3472 C.3       2 UNK         0.0209 
     33 CB         23.9836   -4.6354   -1.4012 C.3       2 UNK        -0.1931 
     34 N          25.4473   -2.7316   -0.9695 N.am      2 UNK        -0.4546 
     35 C          25.8740   -1.4875   -0.7051 C.2       1 UNK         0.5154 
     36 O          25.1523   -0.4897   -0.7396 O.2       1 UNK        -0.5181 
     37 C          28.0056   -1.0947   -6.7995 C.2       5 UNK         0.5014 
     38 O          28.5650   -1.1554   -7.8948 O.2       5 UNK        -0.5248 
     39 N          28.4345   -0.3296   -5.7863 N.am      6 UNK        -0.4434 
     40 CA         29.6452    0.4906   -5.8475 C.3       6 UNK         0.0363 
     41 CB         29.9810    1.0328   -4.4524 C.3       6 UNK        -0.1936 
     42 C          29.5715    1.6364   -6.8681 C.2       6 UNK         0.5081 
     43 O          30.6045    2.0013   -7.4257 O.2       6 UNK        -0.5248 
     44 N          28.3698    2.1746   -7.1134 N.am      7 UNK        -0.4718 
     45 CA         28.1359    3.1911   -8.1396 C.3       7 UNK         0.0273 
     46 CB         26.8213    3.9343   -7.8541 C.3       7 UNK        -0.1935 
     47 C          28.1289    2.5716   -9.5447 C.2       7 UNK         0.5018 
     48 O          28.7645    3.1171  -10.4466 O.2       7 UNK        -0.5186 
     49 N          27.4375    1.4326   -9.6946 N.am      8 UNK        -0.4240 
     50 CA         27.3252    0.6733  -10.9415 C.3       8 UNK         0.0235 
     51 CB         26.2874   -0.4476  -10.7662 C.3       8 UNK        -0.2000 
     52 C          28.6684    0.1030  -11.4254 C.2       8 UNK         0.4941 
     53 O          28.9841    0.2246  -12.6096 O.2       8 UNK        -0.5273 
     54 N          29.4382   -0.4934  -10.5053 N.am      9 UNK        -0.4262 
     55 CA         30.7584   -1.0684  -10.7767 C.3       9 UNK         0.0264 
     56 CB         31.0141   -2.2136   -9.7836 C.3       9 UNK        -0.1955 
     57 C          31.9027   -0.0355  -10.7456 C.2       9 UNK         0.5031 
     58 O          33.0203   -0.3874  -11.1268 O.2       9 UNK        -0.5390 
     59 N          31.6154    1.2022  -10.3102 N.am      10 UNK        -0.4204 
     60 CA         32.5365    2.3380  -10.1613 C.3       10 UNK         0.0237 
     61 CB         33.0400    2.8244  -11.5372 C.3       10 UNK        -0.1985 
     62 C          33.6750    2.0439   -9.1636 C.2       10 UNK         0.4970 
     63 O          34.8518    2.2239   -9.4840 O.2       10 UNK        -0.4914 
     64 N          33.2877    1.5839   -7.9701 N.am      11 UNK        -0.4285 
     65 CA         34.1814    1.2130   -6.8621 C.3       11 UNK         0.1007 
     66 C          34.6512    2.4194   -6.0001 C.2       11 UNK         0.5703 
     67 N          34.0965    3.6149   -6.1659 N.am      11 UNK        -0.7361 
     68 O          35.5466    2.2699   -5.1720 O.2       11 UNK        -0.4986 
     69 C69        33.5577    0.1014   -5.9754 C.3       12 UNK        -0.0947 
     70 S70        33.1345   -1.3827   -6.9469 S.3       12 UNK        -0.2240 
     71 C71        33.3489   -2.7241   -5.7422 C.3       12 UNK         0.0194 
     72 H72        28.5837   -3.7288    3.2942 H         1 UNK         0.0906 
     73 H73        27.2487   -4.6981    2.6656 H         1 UNK         0.0906 
     74 H74        28.7327   -4.5243    1.7267 H         1 UNK         0.0906 
     75 H75        28.5000   -3.0889    0.0294 H         1 UNK         0.3140 
     76 H76        27.4276   -0.4549    0.3286 H         1 UNK         0.1085 
     77 H77        27.8669   -0.2117   -2.0955 H         1 UNK         0.0836 
     78 H78        28.1375   -1.9167   -2.2713 H         1 UNK         0.0836 
     79 H79        31.7682   -2.3805   -0.9816 H         1 UNK         0.0731 
     80 H80        30.2322   -3.1700   -0.8102 H         1 UNK         0.0731 
     81 H81        32.7282   -1.8859   -3.2147 H         1 UNK         0.1312 
     82 H82        31.1803   -4.1948   -6.4829 H         1 UNK         0.1406 
     83 H83        29.0161   -3.9930   -2.7928 H         1 UNK         0.1631 
     84 H84        29.4240   -6.0089   -5.6486 H         1 UNK         0.0717 
     85 H85        28.2510   -5.4743   -4.4759 H         1 UNK         0.0717 
     86 H86        25.9592   -3.6178   -5.4941 H         1 UNK         0.0934 
     87 H87        27.3712   -2.9085   -4.7650 H         1 UNK         0.0934 
     88 H88        26.3535   -2.1945   -7.5617 H         1 UNK         0.0739 
     89 H89        25.1526   -1.3935   -5.2009 H         1 UNK         0.3093 
     90 H90        24.2484    1.3251   -5.1399 H         1 UNK         0.0818 
     91 H91        22.2685    2.0962   -6.5027 H         1 UNK         0.0819 
     92 H92        23.7896    2.4956   -7.2779 H         1 UNK         0.0819 
     93 H93        22.8425    1.1357   -7.8657 H         1 UNK         0.0819 
     94 H94        22.9955   -1.1685   -6.0654 H         1 UNK         0.3041 
     95 H95        20.6417   -1.3597   -3.6235 H         1 UNK         0.0784 
     96 H96        20.9941   -2.2467   -5.9487 H         1 UNK         0.0793 
     97 H97        22.4890   -3.0289   -5.4304 H         1 UNK         0.0793 
     98 H98        20.9473   -3.5264   -4.7544 H         1 UNK         0.0793 
     99 H99        21.7522   -2.3650   -1.9894 H         1 UNK         0.3024 
    100 H100       23.4163   -2.7321   -0.5646 H         1 UNK         0.1171 
    101 H101       24.6489   -5.0549   -2.1573 H         1 UNK         0.0786 
    102 H102       24.2382   -5.0853   -0.4413 H         1 UNK         0.0786 
    103 H103       22.9700   -4.9551   -1.6474 H         1 UNK         0.0786 
    104 H104       26.1183   -3.4825   -0.9124 H         1 UNK         0.2977 
    105 H105       27.9072   -0.3144   -4.9266 H         1 UNK         0.3127 
    106 H106       30.4611   -0.1626   -6.1628 H         1 UNK         0.0770 
    107 H107       29.1383    1.5577   -4.0016 H         1 UNK         0.0814 
    108 H108       30.8184    1.7311   -4.4885 H         1 UNK         0.0814 
    109 H109       30.2744    0.2206   -3.7905 H         1 UNK         0.0814 
    110 H110       27.5563    1.7794   -6.6634 H         1 UNK         0.2983 
    111 H111       28.9486    3.9205   -8.1001 H         1 UNK         0.0947 
    112 H112       26.6561    4.7249   -8.5872 H         1 UNK         0.0806 
    113 H113       26.8356    4.4029   -6.8701 H         1 UNK         0.0806 
    114 H114       25.9602    3.2683   -7.8969 H         1 UNK         0.0806 
    115 H115       26.9184    1.0728   -8.8952 H         1 UNK         0.3000 
    116 H116       26.9605    1.3570  -11.7110 H         1 UNK         0.0850 
    117 H117       26.1673   -1.0183  -11.6880 H         1 UNK         0.0810 
    118 H118       25.3095   -0.0435  -10.5035 H         1 UNK         0.0810 
    119 H119       26.5785   -1.1477   -9.9820 H         1 UNK         0.0810 
    120 H120       29.0839   -0.6004   -9.5540 H         1 UNK         0.3040 
    121 H121       30.7537   -1.4997  -11.7800 H         1 UNK         0.0766 
    122 H122       30.9641   -1.8656   -8.7527 H         1 UNK         0.0812 
    123 H123       31.9989   -2.6580   -9.9327 H         1 UNK         0.0812 
    124 H124       30.2770   -3.0084   -9.8982 H         1 UNK         0.0812 
    125 H125       30.6668    1.3759  -10.0066 H         1 UNK         0.3205 
    126 H126       31.9494    3.1475   -9.7246 H         1 UNK         0.0754 
    127 H127       33.6356    3.7324  -11.4354 H         1 UNK         0.0769 
    128 H128       32.2081    3.0556  -12.2027 H         1 UNK         0.0769 
    129 H129       33.6659    2.0791  -12.0290 H         1 UNK         0.0769 
    130 H130       32.2893    1.5440   -7.7719 H         1 UNK         0.2981 
    131 H131       35.0912    0.7978   -7.2998 H         1 UNK         0.0541 
    132 H132       34.4143    4.3898   -5.6056 H         1 UNK         0.3459 
    133 H133       33.3558    3.7436   -6.8362 H         1 UNK         0.3459 
    134 H134       32.6591    0.4621   -5.4761 H         1 UNK         0.0612 
    135 H135       34.2538   -0.1840   -5.1850 H         1 UNK         0.0612 
    136 H136       33.6251   -3.6283   -6.2866 H         1 UNK         0.0624 
    137 H137       34.1897   -2.5082   -5.0817 H         1 UNK         0.0624 
@<TRIPOS>BOND
     1    1    2 1    
     2    1   72 1    
     3    1   73 1    
     4    1   74 1    
     5    2    3 2    
     6    2    4 am   BACKBONE|DICT|INTERRES
     7    4    5 1    
     8    4   75 1    
     9    5    6 1    
    10    5   35 1    
    11    5   76 1    
    12    6    7 1    
    13    6   77 1    
    14    6   78 1    
    15    7    8 1    
    16    8    9 1    
    17    8   79 1    
    18    8   80 1    
    19    9   10 ar   
    20    9   14 ar   
    21   10   11 ar   
    22   10   81 1    
    23   11   12 ar   
    24   11   71 1    
    25   12   13 ar   
    26   12   82 1    
    27   13   14 ar   
    28   13   15 1    
    29   14   83 1    
    30   15   16 1    
    31   15   84 1    
    32   15   85 1    
    33   16   17 1    
    34   17   18 1    
    35   17   86 1    
    36   17   87 1    
    37   18   19 1    
    38   18   37 1    
    39   18   88 1    
    40   19   20 am   BACKBONE|DICT|INTERRES
    41   19   89 1    
    42   20   21 2    
    43   20   22 1    
    44   22   23 1    
    45   22   24 1    
    46   22   90 1    
    47   23   91 1    
    48   23   92 1    
    49   23   93 1    
    50   24   25 am   BACKBONE|DICT|INTERRES
    51   24   94 1    
    52   25   26 2    
    53   25   27 1    
    54   27   28 1    
    55   27   29 1    
    56   27   95 1    
    57   28   96 1    
    58   28   97 1    
    59   28   98 1    
    60   29   30 am   BACKBONE|DICT|INTERRES
    61   29   99 1    
    62   30   31 2    
    63   30   32 1    
    64   32   33 1    
    65   32   34 1    
    66   32  100 1    
    67   33  101 1    
    68   33  102 1    
    69   33  103 1    
    70   34   35 am   BACKBONE|DICT|INTERRES
    71   34  104 1    
    72   35   36 2    
    73   37   38 2    
    74   37   39 am   BACKBONE|DICT|INTERRES
    75   39   40 1    
    76   39  105 1    
    77   40   41 1    
    78   40   42 1    
    79   40  106 1    
    80   41  107 1    
    81   41  108 1    
    82   41  109 1    
    83   42   43 2    
    84   42   44 am   BACKBONE|DICT|INTERRES
    85   44   45 1    
    86   44  110 1    
    87   45   46 1    
    88   45   47 1    
    89   45  111 1    
    90   46  112 1    
    91   46  113 1    
    92   46  114 1    
    93   47   48 2    
    94   47   49 am   BACKBONE|DICT|INTERRES
    95   49   50 1    
    96   49  115 1    
    97   50   51 1    
    98   50   52 1    
    99   50  116 1    
   100   51  117 1    
   101   51  118 1    
   102   51  119 1    
   103   52   53 2    
   104   52   54 am   BACKBONE|DICT|INTERRES
   105   54   55 1    
   106   54  120 1    
   107   55   56 1    
   108   55   57 1    
   109   55  121 1    
   110   56  122 1    
   111   56  123 1    
   112   56  124 1    
   113   57   58 2    
   114   57   59 am   BACKBONE|DICT|INTERRES
   115   59   60 1    
   116   59  125 1    
   117   60   61 1    
   118   60   62 1    
   119   60  126 1    
   120   61  127 1    
   121   61  128 1    
   122   61  129 1    
   123   62   63 2    
   124   62   64 am   BACKBONE|DICT|INTERRES
   125   64   65 1    
   126   64  130 1    
   127   65   66 1    
   128   65   69 1    
   129   65  131 1    
   130   66   67 am   BACKBONE|DICT|INTERRES
   131   66   68 2    
   132   67  132 1    
   133   67  133 1    
   134   69   70 1    
   135   69  134 1    
   136   69  135 1    
   137   70   71 1    
   138   71  136 1    
   139   71  137 1    
@<TRIPOS>SUBSTRUCTURE
     1 UNK         1 GROUP             0       ****    0 ROOT    
