@<TRIPOS>MOLECULE
3R137
137   139    1
SMALL
USER_CHARGES


@<TRIPOS>ATOM
      1 CA         23.9815   -5.6516   -3.8584 C.3       0 UNK        -0.2020 
      2 C          24.6920   -4.7614   -2.8505 C.2       0 UNK         0.4855 
      3 O          24.0474   -3.9494   -2.1852 O.2       0 UNK        -0.5197 
      4 N          26.0179   -4.9086   -2.7391 N.am      1 UNK        -0.4892 
      5 CA         26.9168   -4.1438   -1.8671 C.3       1 UNK         0.0835 
      6 C6         28.3798   -4.6688   -1.9276 C.3       12 UNK        -0.0855 
      7 S7         28.9604   -5.1558   -3.5949 S.3       12 UNK        -0.2931 
      8 C8         30.7723   -5.1567   -3.3576 C.3       12 UNK         0.0378 
      9 C9         31.4621   -3.7916   -3.4229 C.ar      12 UNK        -0.0802 
     10 C10        32.8539   -3.7469   -3.2884 C.ar      12 UNK        -0.0944 
     11 C11        33.5462   -2.5347   -3.3722 C.ar      12 UNK        -0.0787 
     12 C12        32.8351   -1.3498   -3.5780 C.ar      12 UNK        -0.0862 
     13 C13        31.4502   -1.3791   -3.7414 C.ar      12 UNK        -0.0733 
     14 C14        30.7692   -2.5954   -3.6510 C.ar      12 UNK        -0.0832 
     15 C15        30.6889   -0.1138   -4.0909 C.3       12 UNK         0.0240 
     16 S16        29.5558    0.3819   -2.7545 S.3       12 UNK        -0.2522 
     17 C17        28.5977    1.7503   -3.4981 C.3       12 UNK        -0.0967 
     18 CA         28.1722    1.5479   -4.9754 C.3       5 UNK         0.0660 
     19 N          27.5167    0.2566   -5.2210 N.am      5 UNK        -0.4015 
     20 C          27.2303   -0.2240   -6.4401 C.2       4 UNK         0.4946 
     21 O          27.5212    0.3538   -7.4849 O.2       4 UNK        -0.5353 
     22 CA         26.4357   -1.5349   -6.5152 C.3       4 UNK         0.0277 
     23 CB         27.3688   -2.7551   -6.4332 C.3       4 UNK        -0.1981 
     24 N          25.4133   -1.5893   -5.4683 N.am      4 UNK        -0.4209 
     25 C          24.2853   -0.8603   -5.4968 C.2       3 UNK         0.4942 
     26 O          23.9508   -0.1639   -6.4548 O.2       3 UNK        -0.5208 
     27 CA         23.4012   -0.8619   -4.2366 C.3       3 UNK         0.0250 
     28 CB         22.3164   -1.9450   -4.3313 C.3       3 UNK        -0.1990 
     29 N          24.1715   -1.0258   -3.0005 N.am      3 UNK        -0.4232 
     30 C          25.0195   -0.0986   -2.5274 C.2       2 UNK         0.4993 
     31 O          25.1778    1.0036   -3.0518 O.2       2 UNK        -0.5286 
     32 CA         25.8803   -0.4691   -1.3056 C.3       2 UNK         0.0209 
     33 CB         25.2081    0.0127   -0.0108 C.3       2 UNK        -0.1931 
     34 N          26.1831   -1.9000   -1.1960 N.am      2 UNK        -0.4546 
     35 C          26.8087   -2.6275   -2.1328 C.2       1 UNK         0.5154 
     36 O          27.2160   -2.1546   -3.1947 O.2       1 UNK        -0.5181 
     37 C          27.3126    2.7271   -5.4698 C.2       5 UNK         0.5014 
     38 O          27.8409    3.6190   -6.1342 O.2       5 UNK        -0.5248 
     39 N          26.0003    2.6839   -5.1949 N.am      6 UNK        -0.4434 
     40 CA         25.0068    3.6422   -5.6917 C.3       6 UNK         0.0363 
     41 CB         23.6435    3.3409   -5.0499 C.3       6 UNK        -0.1936 
     42 C          24.8865    3.6620   -7.2277 C.2       6 UNK         0.5081 
     43 O          24.6498    4.7250   -7.8017 O.2       6 UNK        -0.5248 
     44 N          25.0780    2.4999   -7.8659 N.am      7 UNK        -0.4718 
     45 CA         25.1154    2.3367   -9.3220 C.3       7 UNK         0.0273 
     46 CB         24.7345    0.8858   -9.6634 C.3       7 UNK        -0.1935 
     47 C          26.4783    2.6963   -9.9490 C.2       7 UNK         0.5018 
     48 O          26.5787    2.6953  -11.1767 O.2       7 UNK        -0.5186 
     49 N          27.4954    2.9718   -9.1163 N.am      8 UNK        -0.4240 
     50 CA         28.9038    3.2034   -9.4644 C.3       8 UNK         0.0235 
     51 CB         29.0699    4.5038  -10.2798 C.3       8 UNK        -0.2000 
     52 C          29.5678    1.9779  -10.1277 C.2       8 UNK         0.4941 
     53 O          30.3874    2.1341  -11.0357 O.2       8 UNK        -0.5273 
     54 N          29.1959    0.7820   -9.6585 N.am      9 UNK        -0.4262 
     55 CA         29.7173   -0.5147  -10.0804 C.3       9 UNK         0.0264 
     56 CB         28.5172   -1.4501  -10.3286 C.3       9 UNK        -0.1955 
     57 C          30.6798   -1.0707   -9.0134 C.2       9 UNK         0.5031 
     58 O          31.0679   -0.3500   -8.0876 O.2       9 UNK        -0.5390 
     59 N          31.0655   -2.3462   -9.1745 N.am      10 UNK        -0.4204 
     60 CA         32.0134   -3.0931   -8.3381 C.3       10 UNK         0.0237 
     61 CB         31.4266   -3.3438   -6.9325 C.3       10 UNK        -0.1985 
     62 C          33.3979   -2.4183   -8.3470 C.2       10 UNK         0.4970 
     63 O          33.9962   -2.3304   -9.4212 O.2       10 UNK        -0.4914 
     64 N          33.8767   -1.9425   -7.1894 N.am      11 UNK        -0.4285 
     65 CA         35.1172   -1.1552   -7.0824 C.3       11 UNK         0.1007 
     66 C          35.0122    0.2880   -7.6629 C.2       11 UNK         0.5703 
     67 N          33.8300    0.8042   -7.9836 N.am      11 UNK        -0.7361 
     68 O          36.0317    0.9533   -7.8308 O.2       11 UNK        -0.4986 
     69 C69        35.6935   -1.1198   -5.6408 C.3       12 UNK        -0.0947 
     70 S70        35.8737   -2.7635   -4.8648 S.3       12 UNK        -0.2240 
     71 C71        35.0626   -2.5119   -3.2519 C.3       12 UNK         0.0194 
     72 H72        23.7810   -5.0996   -4.7759 H         1 UNK         0.0906 
     73 H73        24.5778   -6.5281   -4.1117 H         1 UNK         0.0906 
     74 H74        23.0315   -5.9981   -3.4524 H         1 UNK         0.0906 
     75 H75        26.4968   -5.5595   -3.3470 H         1 UNK         0.3140 
     76 H76        26.5674   -4.3140   -0.8463 H         1 UNK         0.1085 
     77 H77        28.4623   -5.5546   -1.2958 H         1 UNK         0.0836 
     78 H78        29.0728   -3.9431   -1.4963 H         1 UNK         0.0836 
     79 H79        31.2044   -5.7913   -4.1327 H         1 UNK         0.0731 
     80 H80        31.0057   -5.6343   -2.4049 H         1 UNK         0.0731 
     81 H81        33.4057   -4.6641   -3.1321 H         1 UNK         0.1312 
     82 H82        33.3579   -0.4060   -3.6361 H         1 UNK         0.1406 
     83 H83        29.6977   -2.5927   -3.7855 H         1 UNK         0.1631 
     84 H84        30.1425   -0.3187   -5.0105 H         1 UNK         0.0717 
     85 H85        31.3696    0.7103   -4.3099 H         1 UNK         0.0717 
     86 H86        27.7225    1.9133   -2.8671 H         1 UNK         0.0934 
     87 H87        29.1980    2.6578   -3.4083 H         1 UNK         0.0934 
     88 H88        29.0740    1.5691   -5.5903 H         1 UNK         0.0739 
     89 H89        27.2892   -0.3040   -4.4083 H         1 UNK         0.3093 
     90 H90        25.9332   -1.5663   -7.4844 H         1 UNK         0.0818 
     91 H91        26.8079   -3.6891   -6.4595 H         1 UNK         0.0819 
     92 H92        28.0631   -2.7696   -7.2736 H         1 UNK         0.0819 
     93 H93        27.9738   -2.7546   -5.5278 H         1 UNK         0.0819 
     94 H94        25.6688   -2.0750   -4.6166 H         1 UNK         0.3041 
     95 H95        22.9004    0.1074   -4.1880 H         1 UNK         0.0784 
     96 H96        21.6834   -1.7842   -5.2051 H         1 UNK         0.0793 
     97 H97        22.7454   -2.9417   -4.4218 H         1 UNK         0.0793 
     98 H98        21.6680   -1.9367   -3.4550 H         1 UNK         0.0793 
     99 H99        24.1101   -1.9259   -2.5330 H         1 UNK         0.3024 
    100 H100       26.8312    0.0561   -1.4131 H         1 UNK         0.1171 
    101 H101       25.8512   -0.1482    0.8547 H         1 UNK         0.0786 
    102 H102       24.9932    1.0814   -0.0575 H         1 UNK         0.0786 
    103 H103       24.2636   -0.5023    0.1699 H         1 UNK         0.0786 
    104 H104       25.8312   -2.3697   -0.3739 H         1 UNK         0.2977 
    105 H105       25.6582    1.9542   -4.5710 H         1 UNK         0.3127 
    106 H106       25.3230    4.6378   -5.3736 H         1 UNK         0.0770 
    107 H107       23.2777    2.3524   -5.3293 H         1 UNK         0.0814 
    108 H108       22.8941    4.0678   -5.3659 H         1 UNK         0.0814 
    109 H109       23.6981    3.3824   -3.9618 H         1 UNK         0.0814 
    110 H110       25.2338    1.6645   -7.3156 H         1 UNK         0.2983 
    111 H111       24.3702    2.9982   -9.7692 H         1 UNK         0.0947 
    112 H112       25.4653    0.1758   -9.2756 H         1 UNK         0.0806 
    113 H113       24.6792    0.7380  -10.7427 H         1 UNK         0.0806 
    114 H114       23.7605    0.6225   -9.2504 H         1 UNK         0.0806 
    115 H115       27.3035    2.9389   -8.1217 H         1 UNK         0.3000 
    116 H116       29.4245    3.3442   -8.5159 H         1 UNK         0.0850 
    117 H117       28.6027    5.3497   -9.7756 H         1 UNK         0.0810 
    118 H118       28.6297    4.4191  -11.2737 H         1 UNK         0.0810 
    119 H119       30.1243    4.7487  -10.4125 H         1 UNK         0.0810 
    120 H120       28.5607    0.7478   -8.8599 H         1 UNK         0.3040 
    121 H121       30.2788   -0.4109  -11.0109 H         1 UNK         0.0766 
    122 H122       28.8268   -2.4071  -10.7488 H         1 UNK         0.0812 
    123 H123       27.8166   -1.0068  -11.0368 H         1 UNK         0.0812 
    124 H124       27.9677   -1.6537   -9.4096 H         1 UNK         0.0812 
    125 H125       30.7309   -2.8403   -9.9896 H         1 UNK         0.3205 
    126 H126       32.1497   -4.0661   -8.8126 H         1 UNK         0.0754 
    127 H127       32.1119   -3.9260   -6.3152 H         1 UNK         0.0769 
    128 H128       30.4951   -3.9069   -6.9900 H         1 UNK         0.0769 
    129 H129       31.2112   -2.4132   -6.4092 H         1 UNK         0.0769 
    130 H130       33.3313   -2.0435   -6.3463 H         1 UNK         0.2981 
    131 H131       35.8624   -1.6621   -7.6987 H         1 UNK         0.0541 
    132 H132       33.7929    1.7375   -8.3597 H         1 UNK         0.3459 
    133 H133       32.9712    0.2743   -7.8751 H         1 UNK         0.3459 
    134 H134       36.6855   -0.6647   -5.6499 H         1 UNK         0.0612 
    135 H135       35.0860   -0.4744   -5.0090 H         1 UNK         0.0612 
    136 H136       35.4010   -1.5732   -2.8102 H         1 UNK         0.0624 
    137 H137       35.3881   -3.3005   -2.5719 H         1 UNK         0.0624 
@<TRIPOS>BOND
     1    1    2 1    
     2    1   72 1    
     3    1   73 1    
     4    1   74 1    
     5    2    3 2    
     6    2    4 am   BACKBONE|DICT|INTERRES
     7    4    5 1    
     8    4   75 1    
     9    5    6 1    
    10    5   35 1    
    11    5   76 1    
    12    6    7 1    
    13    6   77 1    
    14    6   78 1    
    15    7    8 1    
    16    8    9 1    
    17    8   79 1    
    18    8   80 1    
    19    9   10 ar   
    20    9   14 ar   
    21   10   11 ar   
    22   10   81 1    
    23   11   12 ar   
    24   11   71 1    
    25   12   13 ar   
    26   12   82 1    
    27   13   14 ar   
    28   13   15 1    
    29   14   83 1    
    30   15   16 1    
    31   15   84 1    
    32   15   85 1    
    33   16   17 1    
    34   17   18 1    
    35   17   86 1    
    36   17   87 1    
    37   18   19 1    
    38   18   37 1    
    39   18   88 1    
    40   19   20 am   BACKBONE|DICT|INTERRES
    41   19   89 1    
    42   20   21 2    
    43   20   22 1    
    44   22   23 1    
    45   22   24 1    
    46   22   90 1    
    47   23   91 1    
    48   23   92 1    
    49   23   93 1    
    50   24   25 am   BACKBONE|DICT|INTERRES
    51   24   94 1    
    52   25   26 2    
    53   25   27 1    
    54   27   28 1    
    55   27   29 1    
    56   27   95 1    
    57   28   96 1    
    58   28   97 1    
    59   28   98 1    
    60   29   30 am   BACKBONE|DICT|INTERRES
    61   29   99 1    
    62   30   31 2    
    63   30   32 1    
    64   32   33 1    
    65   32   34 1    
    66   32  100 1    
    67   33  101 1    
    68   33  102 1    
    69   33  103 1    
    70   34   35 am   BACKBONE|DICT|INTERRES
    71   34  104 1    
    72   35   36 2    
    73   37   38 2    
    74   37   39 am   BACKBONE|DICT|INTERRES
    75   39   40 1    
    76   39  105 1    
    77   40   41 1    
    78   40   42 1    
    79   40  106 1    
    80   41  107 1    
    81   41  108 1    
    82   41  109 1    
    83   42   43 2    
    84   42   44 am   BACKBONE|DICT|INTERRES
    85   44   45 1    
    86   44  110 1    
    87   45   46 1    
    88   45   47 1    
    89   45  111 1    
    90   46  112 1    
    91   46  113 1    
    92   46  114 1    
    93   47   48 2    
    94   47   49 am   BACKBONE|DICT|INTERRES
    95   49   50 1    
    96   49  115 1    
    97   50   51 1    
    98   50   52 1    
    99   50  116 1    
   100   51  117 1    
   101   51  118 1    
   102   51  119 1    
   103   52   53 2    
   104   52   54 am   BACKBONE|DICT|INTERRES
   105   54   55 1    
   106   54  120 1    
   107   55   56 1    
   108   55   57 1    
   109   55  121 1    
   110   56  122 1    
   111   56  123 1    
   112   56  124 1    
   113   57   58 2    
   114   57   59 am   BACKBONE|DICT|INTERRES
   115   59   60 1    
   116   59  125 1    
   117   60   61 1    
   118   60   62 1    
   119   60  126 1    
   120   61  127 1    
   121   61  128 1    
   122   61  129 1    
   123   62   63 2    
   124   62   64 am   BACKBONE|DICT|INTERRES
   125   64   65 1    
   126   64  130 1    
   127   65   66 1    
   128   65   69 1    
   129   65  131 1    
   130   66   67 am   BACKBONE|DICT|INTERRES
   131   66   68 2    
   132   67  132 1    
   133   67  133 1    
   134   69   70 1    
   135   69  134 1    
   136   69  135 1    
   137   70   71 1    
   138   71  136 1    
   139   71  137 1    
@<TRIPOS>SUBSTRUCTURE
     1 UNK         1 GROUP             0       ****    0 ROOT    
