@<TRIPOS>MOLECULE
3R137
137   139    1
SMALL
USER_CHARGES


@<TRIPOS>ATOM
      1 CA         27.9651   -7.0382    1.5622 C.3       0 UNK        -0.2020 
      2 C          27.6890   -5.6082    2.0020 C.2       0 UNK         0.4855 
      3 O          28.2644   -5.1488    2.9888 O.2       0 UNK        -0.5197 
      4 N          26.8133   -4.9045    1.2794 N.am      1 UNK        -0.4892 
      5 CA         26.3895   -3.5303    1.5455 C.3       1 UNK         0.0835 
      6 C6         27.4994   -2.4774    1.2498 C.3       12 UNK        -0.0855 
      7 S7         27.9211   -2.2666   -0.5180 S.3       12 UNK        -0.2931 
      8 C8         29.4161   -3.2907   -0.6596 C.3       12 UNK         0.0378 
      9 C9         30.1400   -3.0127   -1.9675 C.ar      12 UNK        -0.0802 
     10 C10        31.0264   -1.9349   -2.0530 C.ar      12 UNK        -0.0944 
     11 C11        31.7106   -1.6636   -3.2416 C.ar      12 UNK        -0.0787 
     12 C12        31.5179   -2.5034   -4.3429 C.ar      12 UNK        -0.0862 
     13 C13        30.5961   -3.5552   -4.2878 C.ar      12 UNK        -0.0733 
     14 C14        29.9207   -3.8158   -3.0913 C.ar      12 UNK        -0.0832 
     15 C15        30.3038   -4.3790   -5.5369 C.3       12 UNK         0.0240 
     16 S16        28.8540   -3.7463   -6.4541 S.3       12 UNK        -0.2522 
     17 C17        29.3590   -2.0194   -6.7446 C.3       12 UNK        -0.0967 
     18 CA         28.3871   -1.1741   -7.5996 C.3       5 UNK         0.0660 
     19 N          27.0028   -1.2664   -7.1134 N.am      5 UNK        -0.4015 
     20 C          25.9479   -0.5256   -7.4881 C.2       4 UNK         0.4946 
     21 O          26.0219    0.4320   -8.2580 O.2       4 UNK        -0.5353 
     22 CA         24.5663   -0.9071   -6.9264 C.3       4 UNK         0.0277 
     23 CB         23.6784   -1.4719   -8.0476 C.3       4 UNK        -0.1981 
     24 N          24.6116   -1.8683   -5.8195 N.am      4 UNK        -0.4209 
     25 C          24.9896   -1.5713   -4.5698 C.2       3 UNK         0.4942 
     26 O          25.3667   -0.4524   -4.2132 O.2       3 UNK        -0.5208 
     27 CA         24.9992   -2.7421   -3.5765 C.3       3 UNK         0.0250 
     28 CB         26.3408   -3.4889   -3.6428 C.3       3 UNK        -0.1990 
     29 N          24.7825   -2.2811   -2.2069 N.am      3 UNK        -0.4232 
     30 C          23.5877   -1.9745   -1.6822 C.2       2 UNK         0.4993 
     31 O          22.5323   -2.0451   -2.3157 O.2       2 UNK        -0.5286 
     32 CA         23.5635   -1.5231   -0.2034 C.3       2 UNK         0.0209 
     33 CB         22.2294   -1.8605    0.4975 C.3       2 UNK        -0.1931 
     34 N          24.7050   -2.0110    0.5882 N.am      2 UNK        -0.4546 
     35 C          25.0549   -3.2889    0.8088 C.2       1 UNK         0.5154 
     36 O          24.3915   -4.2576    0.4257 O.2       1 UNK        -0.5181 
     37 C          28.9446    0.2616   -7.6667 C.2       5 UNK         0.5014 
     38 O          29.6152    0.6093   -8.6409 O.2       5 UNK        -0.5248 
     39 N          28.6655    1.0590   -6.6263 N.am      6 UNK        -0.4434 
     40 CA         29.1202    2.4427   -6.4819 C.3       6 UNK         0.0363 
     41 CB         28.8496    2.9140   -5.0449 C.3       6 UNK        -0.1936 
     42 C          28.4895    3.4118   -7.4976 C.2       6 UNK         0.5081 
     43 O          29.1069    4.4279   -7.8139 O.2       6 UNK        -0.5248 
     44 N          27.2918    3.0859   -7.9983 N.am      7 UNK        -0.4718 
     45 CA         26.6096    3.8337   -9.0540 C.3       7 UNK         0.0273 
     46 CB         25.0989    3.8554   -8.7673 C.3       7 UNK        -0.1935 
     47 C          26.8871    3.2144  -10.4309 C.2       7 UNK         0.5018 
     48 O          27.0953    3.9518  -11.3945 O.2       7 UNK        -0.5186 
     49 N          26.8728    1.8760  -10.4987 N.am      8 UNK        -0.4240 
     50 CA         27.0088    1.0962  -11.7274 C.3       8 UNK         0.0235 
     51 CB         26.5973   -0.3600  -11.4532 C.3       8 UNK        -0.2000 
     52 C          28.4121    1.1487  -12.3494 C.2       8 UNK         0.4941 
     53 O          28.5130    1.2448  -13.5736 O.2       8 UNK        -0.5273 
     54 N          29.4599    1.0556  -11.5184 N.am      9 UNK        -0.4262 
     55 CA         30.8464    0.9171  -11.9773 C.3       9 UNK         0.0264 
     56 CB         31.1896   -0.5834  -12.0691 C.3       9 UNK        -0.1955 
     57 C          31.8625    1.6657  -11.1006 C.2       9 UNK         0.5031 
     58 O          33.0624    1.4550  -11.2832 O.2       9 UNK        -0.5390 
     59 N          31.3965    2.4825  -10.1420 N.am      10 UNK        -0.4204 
     60 CA         32.1973    3.1633   -9.1106 C.3       10 UNK         0.0237 
     61 CB         33.0356    4.2998   -9.7344 C.3       10 UNK        -0.1985 
     62 C          33.0424    2.1831   -8.2664 C.2       10 UNK         0.4970 
     63 O          34.1876    2.4897   -7.9310 O.2       10 UNK        -0.4914 
     64 N          32.4640    1.0069   -7.9832 N.am      11 UNK        -0.4285 
     65 CA         33.1078   -0.1671   -7.3676 C.3       11 UNK         0.1007 
     66 C          34.1739   -0.8743   -8.2624 C.2       11 UNK         0.5703 
     67 N          34.3400   -0.5233   -9.5324 N.am      11 UNK        -0.7361 
     68 O          34.8432   -1.7988   -7.8073 O.2       11 UNK        -0.4986 
     69 C69        33.6261    0.0835   -5.9210 C.3       12 UNK        -0.0947 
     70 S70        32.3228    0.6173   -4.7580 S.3       12 UNK        -0.2240 
     71 C71        32.6475   -0.4613   -3.3174 C.3       12 UNK         0.0194 
     72 H72        27.3934   -7.3097    0.6749 H         1 UNK         0.0906 
     73 H73        29.0234   -7.1622    1.3341 H         1 UNK         0.0906 
     74 H74        27.7044   -7.7334    2.3598 H         1 UNK         0.0906 
     75 H75        26.2998   -5.3394    0.5219 H         1 UNK         0.3140 
     76 H76        26.1470   -3.4685    2.6088 H         1 UNK         0.1085 
     77 H77        27.2005   -1.5024    1.6376 H         1 UNK         0.0836 
     78 H78        28.4033   -2.7224    1.8088 H         1 UNK         0.0836 
     79 H79        30.0861   -3.0867    0.1771 H         1 UNK         0.0731 
     80 H80        29.1425   -4.3443   -0.5878 H         1 UNK         0.0731 
     81 H81        31.1746   -1.3008   -1.1893 H         1 UNK         0.1312 
     82 H82        32.0468   -2.3056   -5.2638 H         1 UNK         0.1406 
     83 H83        29.2108   -4.6304   -3.0417 H         1 UNK         0.1631 
     84 H84        30.1225   -5.4188   -5.2613 H         1 UNK         0.0717 
     85 H85        31.1716   -4.3864   -6.1983 H         1 UNK         0.0717 
     86 H86        30.3445   -2.0420   -7.2110 H         1 UNK         0.0934 
     87 H87        29.4818   -1.5472   -5.7682 H         1 UNK         0.0934 
     88 H88        28.3880   -1.5714   -8.6160 H         1 UNK         0.0739 
     89 H89        26.8287   -2.0344   -6.4826 H         1 UNK         0.3093 
     90 H90        24.1068    0.0141   -6.5612 H         1 UNK         0.0818 
     91 H91        22.6679   -1.6732   -7.6913 H         1 UNK         0.0819 
     92 H92        23.5918   -0.7630   -8.8727 H         1 UNK         0.0819 
     93 H93        24.0829   -2.3984   -8.4570 H         1 UNK         0.0819 
     94 H94        24.3247   -2.8140   -6.0310 H         1 UNK         0.3041 
     95 H95        24.1994   -3.4390   -3.8375 H         1 UNK         0.0784 
     96 H96        26.4733   -3.9688   -4.6125 H         1 UNK         0.0793 
     97 H97        27.1853   -2.8144   -3.4928 H         1 UNK         0.0793 
     98 H98        26.4002   -4.2722   -2.8867 H         1 UNK         0.0793 
     99 H99        25.6084   -2.1562   -1.6375 H         1 UNK         0.3024 
    100 H100       23.6528   -0.4357   -0.2303 H         1 UNK         0.1171 
    101 H101       22.2274   -1.5195    1.5328 H         1 UNK         0.0786 
    102 H102       22.0309   -2.9327    0.4965 H         1 UNK         0.0786 
    103 H103       21.3898   -1.3753   -0.0018 H         1 UNK         0.0786 
    104 H104       25.3301   -1.2917    0.9256 H         1 UNK         0.2977 
    105 H105       28.0959    0.6895   -5.8781 H         1 UNK         0.3127 
    106 H106       30.1998    2.4562   -6.6417 H         1 UNK         0.0770 
    107 H107       27.7851    2.8969   -4.8072 H         1 UNK         0.0814 
    108 H108       29.2010    3.9361   -4.8971 H         1 UNK         0.0814 
    109 H109       29.3683    2.2876   -4.3186 H         1 UNK         0.0814 
    110 H110       26.8718    2.2028   -7.7280 H         1 UNK         0.2983 
    111 H111       26.9632    4.8673   -9.0736 H         1 UNK         0.0947 
    112 H112       24.5636    4.4102   -9.5391 H         1 UNK         0.0806 
    113 H113       24.8852    4.3391   -7.8140 H         1 UNK         0.0806 
    114 H114       24.6755    2.8506   -8.7343 H         1 UNK         0.0806 
    115 H115       26.6428    1.3528   -9.6549 H         1 UNK         0.3000 
    116 H116       26.3113    1.5103  -12.4588 H         1 UNK         0.0850 
    117 H117       26.6580   -0.9617  -12.3612 H         1 UNK         0.0810 
    118 H118       25.5703   -0.4204  -11.0922 H         1 UNK         0.0810 
    119 H119       27.2404   -0.8278  -10.7073 H         1 UNK         0.0810 
    120 H120       29.2997    0.9367  -10.5209 H         1 UNK         0.3040 
    121 H121       30.9512    1.3537  -12.9726 H         1 UNK         0.0766 
    122 H122       32.1985   -0.7385  -12.4537 H         1 UNK         0.0812 
    123 H123       31.1338   -1.0658  -11.0923 H         1 UNK         0.0812 
    124 H124       30.5088   -1.1064  -12.7407 H         1 UNK         0.0812 
    125 H125       30.3953    2.5844  -10.0562 H         1 UNK         0.3205 
    126 H126       31.4941    3.6229   -8.4181 H         1 UNK         0.0754 
    127 H127       33.5360    4.8861   -8.9627 H         1 UNK         0.0769 
    128 H128       32.4093    4.9858  -10.3046 H         1 UNK         0.0769 
    129 H129       33.8070    3.9153  -10.4024 H         1 UNK         0.0769 
    130 H130       31.5153    0.8566   -8.3121 H         1 UNK         0.2981 
    131 H131       32.3106   -0.9035   -7.2906 H         1 UNK         0.0541 
    132 H132       33.8180    0.2378   -9.9541 H         1 UNK         0.3459 
    133 H133       35.0272   -1.0129  -10.0821 H         1 UNK         0.3459 
    134 H134       34.4189    0.8322   -5.9154 H         1 UNK         0.0612 
    135 H135       34.0813   -0.8271   -5.5298 H         1 UNK         0.0612 
    136 H136       33.6825   -0.8041   -3.3121 H         1 UNK         0.0624 
    137 H137       32.5353    0.1543   -2.4237 H         1 UNK         0.0624 
@<TRIPOS>BOND
     1    1    2 1    
     2    1   72 1    
     3    1   73 1    
     4    1   74 1    
     5    2    3 2    
     6    2    4 am   BACKBONE|DICT|INTERRES
     7    4    5 1    
     8    4   75 1    
     9    5    6 1    
    10    5   35 1    
    11    5   76 1    
    12    6    7 1    
    13    6   77 1    
    14    6   78 1    
    15    7    8 1    
    16    8    9 1    
    17    8   79 1    
    18    8   80 1    
    19    9   10 ar   
    20    9   14 ar   
    21   10   11 ar   
    22   10   81 1    
    23   11   12 ar   
    24   11   71 1    
    25   12   13 ar   
    26   12   82 1    
    27   13   14 ar   
    28   13   15 1    
    29   14   83 1    
    30   15   16 1    
    31   15   84 1    
    32   15   85 1    
    33   16   17 1    
    34   17   18 1    
    35   17   86 1    
    36   17   87 1    
    37   18   19 1    
    38   18   37 1    
    39   18   88 1    
    40   19   20 am   BACKBONE|DICT|INTERRES
    41   19   89 1    
    42   20   21 2    
    43   20   22 1    
    44   22   23 1    
    45   22   24 1    
    46   22   90 1    
    47   23   91 1    
    48   23   92 1    
    49   23   93 1    
    50   24   25 am   BACKBONE|DICT|INTERRES
    51   24   94 1    
    52   25   26 2    
    53   25   27 1    
    54   27   28 1    
    55   27   29 1    
    56   27   95 1    
    57   28   96 1    
    58   28   97 1    
    59   28   98 1    
    60   29   30 am   BACKBONE|DICT|INTERRES
    61   29   99 1    
    62   30   31 2    
    63   30   32 1    
    64   32   33 1    
    65   32   34 1    
    66   32  100 1    
    67   33  101 1    
    68   33  102 1    
    69   33  103 1    
    70   34   35 am   BACKBONE|DICT|INTERRES
    71   34  104 1    
    72   35   36 2    
    73   37   38 2    
    74   37   39 am   BACKBONE|DICT|INTERRES
    75   39   40 1    
    76   39  105 1    
    77   40   41 1    
    78   40   42 1    
    79   40  106 1    
    80   41  107 1    
    81   41  108 1    
    82   41  109 1    
    83   42   43 2    
    84   42   44 am   BACKBONE|DICT|INTERRES
    85   44   45 1    
    86   44  110 1    
    87   45   46 1    
    88   45   47 1    
    89   45  111 1    
    90   46  112 1    
    91   46  113 1    
    92   46  114 1    
    93   47   48 2    
    94   47   49 am   BACKBONE|DICT|INTERRES
    95   49   50 1    
    96   49  115 1    
    97   50   51 1    
    98   50   52 1    
    99   50  116 1    
   100   51  117 1    
   101   51  118 1    
   102   51  119 1    
   103   52   53 2    
   104   52   54 am   BACKBONE|DICT|INTERRES
   105   54   55 1    
   106   54  120 1    
   107   55   56 1    
   108   55   57 1    
   109   55  121 1    
   110   56  122 1    
   111   56  123 1    
   112   56  124 1    
   113   57   58 2    
   114   57   59 am   BACKBONE|DICT|INTERRES
   115   59   60 1    
   116   59  125 1    
   117   60   61 1    
   118   60   62 1    
   119   60  126 1    
   120   61  127 1    
   121   61  128 1    
   122   61  129 1    
   123   62   63 2    
   124   62   64 am   BACKBONE|DICT|INTERRES
   125   64   65 1    
   126   64  130 1    
   127   65   66 1    
   128   65   69 1    
   129   65  131 1    
   130   66   67 am   BACKBONE|DICT|INTERRES
   131   66   68 2    
   132   67  132 1    
   133   67  133 1    
   134   69   70 1    
   135   69  134 1    
   136   69  135 1    
   137   70   71 1    
   138   71  136 1    
   139   71  137 1    
@<TRIPOS>SUBSTRUCTURE
     1 UNK         1 GROUP             0       ****    0 ROOT    
