@<TRIPOS>MOLECULE
3R137
137   139    1
SMALL
USER_CHARGES


@<TRIPOS>ATOM
      1 CA         26.6193   -0.1434    2.0850 C.3       0 UNK        -0.2020 
      2 C          26.6610   -0.1912    0.5656 C.2       0 UNK         0.4855 
      3 O          25.7981    0.3932   -0.0914 O.2       0 UNK        -0.5197 
      4 N          27.6461   -0.8999   -0.0051 N.am      1 UNK        -0.4892 
      5 CA         27.8622   -1.0319   -1.4540 C.3       1 UNK         0.0835 
      6 C6         29.2301   -1.6705   -1.7876 C.3       12 UNK        -0.0855 
      7 S7         29.4998   -3.3234   -1.0666 S.3       12 UNK        -0.2931 
      8 C8         31.0747   -3.7750   -1.8691 C.3       12 UNK         0.0378 
      9 C9         30.9682   -3.8064   -3.3899 C.ar      12 UNK        -0.0802 
     10 C10        31.7727   -2.9724   -4.1763 C.ar      12 UNK        -0.0944 
     11 C11        31.6924   -3.0131   -5.5758 C.ar      12 UNK        -0.0787 
     12 C12        30.7793   -3.8890   -6.1715 C.ar      12 UNK        -0.0862 
     13 C13        29.9522   -4.7085   -5.3999 C.ar      12 UNK        -0.0733 
     14 C14        30.0616   -4.6716   -4.0086 C.ar      12 UNK        -0.0832 
     15 C15        28.9546   -5.6493   -6.0653 C.3       12 UNK         0.0240 
     16 S16        27.8506   -4.8059   -7.2472 S.3       12 UNK        -0.2522 
     17 C17        26.9300   -3.6600   -6.1658 C.3       12 UNK        -0.0967 
     18 CA         26.7387   -2.2644   -6.8093 C.3       5 UNK         0.0660 
     19 N          25.5678   -1.5630   -6.2653 N.am      5 UNK        -0.4015 
     20 C          25.0788   -0.4064   -6.7383 C.2       4 UNK         0.4946 
     21 O          25.6092    0.2423   -7.6403 O.2       4 UNK        -0.5353 
     22 CA         23.7767    0.1138   -6.1220 C.3       4 UNK         0.0277 
     23 CB         22.5764   -0.6235   -6.7527 C.3       4 UNK        -0.1981 
     24 N          23.7632    0.0029   -4.6588 N.am      4 UNK        -0.4209 
     25 C          22.8470    0.5798   -3.8646 C.2       3 UNK         0.4942 
     26 O          21.9611    1.3238   -4.2903 O.2       3 UNK        -0.5208 
     27 CA         22.9195    0.3085   -2.3442 C.3       3 UNK         0.0250 
     28 CB         21.5198    0.2241   -1.6986 C.3       3 UNK        -0.1990 
     29 N          23.7300   -0.8539   -1.9618 N.am      3 UNK        -0.4232 
     30 C          23.5615   -2.1374   -2.3248 C.2       2 UNK         0.4993 
     31 O          22.6220   -2.5338   -3.0153 O.2       2 UNK        -0.5286 
     32 CA         24.6403   -3.1456   -1.8693 C.3       2 UNK         0.0209 
     33 CB         24.8890   -4.2469   -2.9184 C.3       2 UNK        -0.1931 
     34 N          25.9108   -2.5215   -1.4750 N.am      2 UNK        -0.4546 
     35 C          26.7041   -1.7216   -2.2067 C.2       1 UNK         0.5154 
     36 O          26.5111   -1.4534   -3.3962 O.2       1 UNK        -0.5181 
     37 C          28.0254   -1.4126   -6.7788 C.2       5 UNK         0.5014 
     38 O          28.7706   -1.4185   -7.7609 O.2       5 UNK        -0.5248 
     39 N          28.2201   -0.6356   -5.6999 N.am      6 UNK        -0.4434 
     40 CA         29.3056    0.3455   -5.5824 C.3       6 UNK         0.0363 
     41 CB         29.2749    1.0517   -4.2176 C.3       6 UNK        -0.1936 
     42 C          29.3090    1.4001   -6.6976 C.2       6 UNK         0.5081 
     43 O          30.3747    1.7034   -7.2281 O.2       6 UNK        -0.5248 
     44 N          28.1274    1.9290   -7.0383 N.am      7 UNK        -0.4718 
     45 CA         27.9557    2.9140   -8.1060 C.3       7 UNK         0.0273 
     46 CB         26.5984    3.6189   -7.9498 C.3       7 UNK        -0.1935 
     47 C          28.0887    2.2787   -9.4974 C.2       7 UNK         0.5018 
     48 O          28.7209    2.8721  -10.3712 O.2       7 UNK        -0.5186 
     49 N          27.5074    1.0829   -9.6693 N.am      8 UNK        -0.4240 
     50 CA         27.5174    0.3191  -10.9182 C.3       8 UNK         0.0235 
     51 CB         26.5742   -0.8882  -10.7921 C.3       8 UNK        -0.2000 
     52 C          28.9241   -0.1316  -11.3449 C.2       8 UNK         0.4941 
     53 O          29.2801    0.0365  -12.5120 O.2       8 UNK        -0.5273 
     54 N          29.6949   -0.6881  -10.4006 N.am      9 UNK        -0.4262 
     55 CA         31.0506   -1.1960  -10.6366 C.3       9 UNK         0.0264 
     56 CB         31.2282   -2.5014   -9.8495 C.3       9 UNK        -0.1955 
     57 C          32.1585   -0.1755  -10.3076 C.2       9 UNK         0.5031 
     58 O          33.3307   -0.4879  -10.5219 O.2       9 UNK        -0.5390 
     59 N          31.7807    1.0175   -9.8252 N.am      10 UNK        -0.4204 
     60 CA         32.6322    2.1727   -9.5144 C.3       10 UNK         0.0237 
     61 CB         33.2699    2.7437  -10.7999 C.3       10 UNK        -0.1985 
     62 C          33.6585    1.9024   -8.3946 C.2       10 UNK         0.4970 
     63 O          34.8487    2.1736   -8.5696 O.2       10 UNK        -0.4914 
     64 N          33.1710    1.4027   -7.2534 N.am      11 UNK        -0.4285 
     65 CA         33.9243    1.3349   -5.9917 C.3       11 UNK         0.1007 
     66 C          33.8060    2.6748   -5.2188 C.2       11 UNK         0.5703 
     67 N          34.8632    3.0919   -4.5356 N.am      11 UNK        -0.7361 
     68 O          32.7589    3.3194   -5.1997 O.2       11 UNK        -0.4986 
     69 C69        33.4773    0.1448   -5.1021 C.3       12 UNK        -0.0947 
     70 S70        34.0687   -1.4489   -5.7584 S.3       12 UNK        -0.2240 
     71 C71        32.5521   -2.1395   -6.4941 C.3       12 UNK         0.0194 
     72 H72        25.6767   -0.5525    2.4475 H         1 UNK         0.0906 
     73 H73        27.4324   -0.7136    2.5338 H         1 UNK         0.0906 
     74 H74        26.6978    0.8876    2.4289 H         1 UNK         0.0906 
     75 H75        28.3182   -1.3831    0.5759 H         1 UNK         0.3140 
     76 H76        27.8811   -0.0121   -1.8429 H         1 UNK         0.1085 
     77 H77        29.3472   -1.7420   -2.8701 H         1 UNK         0.0836 
     78 H78        30.0333   -1.0179   -1.4417 H         1 UNK         0.0836 
     79 H79        31.3831   -4.7594   -1.5144 H         1 UNK         0.0731 
     80 H80        31.8486   -3.0763   -1.5470 H         1 UNK         0.0731 
     81 H81        32.4638   -2.2988   -3.6906 H         1 UNK         0.1312 
     82 H82        30.6981   -3.9333   -7.2479 H         1 UNK         0.1406 
     83 H83        29.4353   -5.3094   -3.3992 H         1 UNK         0.1631 
     84 H84        28.3424   -6.1605   -5.3206 H         1 UNK         0.0717 
     85 H85        29.5070   -6.4260   -6.5957 H         1 UNK         0.0717 
     86 H86        25.9594   -4.1286   -6.0013 H         1 UNK         0.0934 
     87 H87        27.3999   -3.5806   -5.1833 H         1 UNK         0.0934 
     88 H88        26.5032   -2.4242   -7.8632 H         1 UNK         0.0739 
     89 H89        25.0793   -2.0312   -5.5178 H         1 UNK         0.3093 
     90 H90        23.7057    1.1729   -6.3794 H         1 UNK         0.0818 
     91 H91        21.6288   -0.1576   -6.4836 H         1 UNK         0.0819 
     92 H92        22.6357   -0.6105   -7.8422 H         1 UNK         0.0819 
     93 H93        22.5342   -1.6672   -6.4390 H         1 UNK         0.0819 
     94 H94        24.5111   -0.5246   -4.2260 H         1 UNK         0.3041 
     95 H95        23.4267    1.1740   -1.9150 H         1 UNK         0.0784 
     96 H96        20.9613    1.1495   -1.8451 H         1 UNK         0.0793 
     97 H97        20.9260   -0.5844   -2.1262 H         1 UNK         0.0793 
     98 H98        21.5883    0.0583   -0.6235 H         1 UNK         0.0793 
     99 H99        24.5332   -0.6298   -1.3818 H         1 UNK         0.3024 
    100 H100       24.2404   -3.6241   -0.9737 H         1 UNK         0.1171 
    101 H101       23.9857   -4.8308   -3.0993 H         1 UNK         0.0786 
    102 H102       25.1969   -3.8217   -3.8705 H         1 UNK         0.0786 
    103 H103       25.6637   -4.9412   -2.5929 H         1 UNK         0.0786 
    104 H104       26.1774   -2.6518   -0.5086 H         1 UNK         0.2977 
    105 H105       27.5700   -0.7228   -4.9246 H         1 UNK         0.3127 
    106 H106       30.2421   -0.2064   -5.6610 H         1 UNK         0.0770 
    107 H107       28.2693    1.3719   -3.9438 H         1 UNK         0.0814 
    108 H108       29.9089    1.9406   -4.2186 H         1 UNK         0.0814 
    109 H109       29.6649    0.4122   -3.4328 H         1 UNK         0.0814 
    110 H110       27.2876    1.5706   -6.6054 H         1 UNK         0.2983 
    111 H111       28.7414    3.6671   -8.0090 H         1 UNK         0.0947 
    112 H112       26.4640    4.3777   -8.7219 H         1 UNK         0.0806 
    113 H113       26.5218    4.1218   -6.9857 H         1 UNK         0.0806 
    114 H114       25.7643    2.9211   -8.0314 H         1 UNK         0.0806 
    115 H115       26.9719    0.6944   -8.8959 H         1 UNK         0.3000 
    116 H116       27.1277    0.9719  -11.7022 H         1 UNK         0.0850 
    117 H117       26.5127   -1.4346  -11.7341 H         1 UNK         0.0810 
    118 H118       25.5627   -0.5774  -10.5292 H         1 UNK         0.0810 
    119 H119       26.9174   -1.5891  -10.0313 H         1 UNK         0.0810 
    120 H120       29.3151   -0.8242   -9.4639 H         1 UNK         0.3040 
    121 H121       31.1697   -1.4411  -11.6941 H         1 UNK         0.0766 
    122 H122       31.0197   -2.3454   -8.7953 H         1 UNK         0.0812 
    123 H123       32.2426   -2.8924   -9.9384 H         1 UNK         0.0812 
    124 H124       30.5484   -3.2741  -10.2089 H         1 UNK         0.0812 
    125 H125       30.7954    1.1512   -9.6411 H         1 UNK         0.3205 
    126 H126       31.9614    2.9398   -9.1240 H         1 UNK         0.0754 
    127 H127       33.8058    3.6706  -10.5914 H         1 UNK         0.0769 
    128 H128       32.5121    2.9707  -11.5500 H         1 UNK         0.0769 
    129 H129       33.9838    2.0489  -11.2435 H         1 UNK         0.0769 
    130 H130       32.1585    1.3316   -7.1745 H         1 UNK         0.2981 
    131 H131       34.9813    1.1905   -6.2257 H         1 UNK         0.0541 
    132 H132       35.7238    2.5665   -4.5325 H         1 UNK         0.3459 
    133 H133       34.8006    3.9530   -4.0153 H         1 UNK         0.3459 
    134 H134       32.3954    0.1310   -4.9717 H         1 UNK         0.0612 
    135 H135       33.8974    0.2370   -4.0987 H         1 UNK         0.0612 
    136 H136       31.9452   -1.3301   -6.9006 H         1 UNK         0.0624 
    137 H137       32.8719   -2.7420   -7.3451 H         1 UNK         0.0624 
@<TRIPOS>BOND
     1    1    2 1    
     2    1   72 1    
     3    1   73 1    
     4    1   74 1    
     5    2    3 2    
     6    2    4 am   BACKBONE|DICT|INTERRES
     7    4    5 1    
     8    4   75 1    
     9    5    6 1    
    10    5   35 1    
    11    5   76 1    
    12    6    7 1    
    13    6   77 1    
    14    6   78 1    
    15    7    8 1    
    16    8    9 1    
    17    8   79 1    
    18    8   80 1    
    19    9   10 ar   
    20    9   14 ar   
    21   10   11 ar   
    22   10   81 1    
    23   11   12 ar   
    24   11   71 1    
    25   12   13 ar   
    26   12   82 1    
    27   13   14 ar   
    28   13   15 1    
    29   14   83 1    
    30   15   16 1    
    31   15   84 1    
    32   15   85 1    
    33   16   17 1    
    34   17   18 1    
    35   17   86 1    
    36   17   87 1    
    37   18   19 1    
    38   18   37 1    
    39   18   88 1    
    40   19   20 am   BACKBONE|DICT|INTERRES
    41   19   89 1    
    42   20   21 2    
    43   20   22 1    
    44   22   23 1    
    45   22   24 1    
    46   22   90 1    
    47   23   91 1    
    48   23   92 1    
    49   23   93 1    
    50   24   25 am   BACKBONE|DICT|INTERRES
    51   24   94 1    
    52   25   26 2    
    53   25   27 1    
    54   27   28 1    
    55   27   29 1    
    56   27   95 1    
    57   28   96 1    
    58   28   97 1    
    59   28   98 1    
    60   29   30 am   BACKBONE|DICT|INTERRES
    61   29   99 1    
    62   30   31 2    
    63   30   32 1    
    64   32   33 1    
    65   32   34 1    
    66   32  100 1    
    67   33  101 1    
    68   33  102 1    
    69   33  103 1    
    70   34   35 am   BACKBONE|DICT|INTERRES
    71   34  104 1    
    72   35   36 2    
    73   37   38 2    
    74   37   39 am   BACKBONE|DICT|INTERRES
    75   39   40 1    
    76   39  105 1    
    77   40   41 1    
    78   40   42 1    
    79   40  106 1    
    80   41  107 1    
    81   41  108 1    
    82   41  109 1    
    83   42   43 2    
    84   42   44 am   BACKBONE|DICT|INTERRES
    85   44   45 1    
    86   44  110 1    
    87   45   46 1    
    88   45   47 1    
    89   45  111 1    
    90   46  112 1    
    91   46  113 1    
    92   46  114 1    
    93   47   48 2    
    94   47   49 am   BACKBONE|DICT|INTERRES
    95   49   50 1    
    96   49  115 1    
    97   50   51 1    
    98   50   52 1    
    99   50  116 1    
   100   51  117 1    
   101   51  118 1    
   102   51  119 1    
   103   52   53 2    
   104   52   54 am   BACKBONE|DICT|INTERRES
   105   54   55 1    
   106   54  120 1    
   107   55   56 1    
   108   55   57 1    
   109   55  121 1    
   110   56  122 1    
   111   56  123 1    
   112   56  124 1    
   113   57   58 2    
   114   57   59 am   BACKBONE|DICT|INTERRES
   115   59   60 1    
   116   59  125 1    
   117   60   61 1    
   118   60   62 1    
   119   60  126 1    
   120   61  127 1    
   121   61  128 1    
   122   61  129 1    
   123   62   63 2    
   124   62   64 am   BACKBONE|DICT|INTERRES
   125   64   65 1    
   126   64  130 1    
   127   65   66 1    
   128   65   69 1    
   129   65  131 1    
   130   66   67 am   BACKBONE|DICT|INTERRES
   131   66   68 2    
   132   67  132 1    
   133   67  133 1    
   134   69   70 1    
   135   69  134 1    
   136   69  135 1    
   137   70   71 1    
   138   71  136 1    
   139   71  137 1    
@<TRIPOS>SUBSTRUCTURE
     1 UNK         1 GROUP             0       ****    0 ROOT    
