@<TRIPOS>MOLECULE
3R137
137   139    1
SMALL
USER_CHARGES


@<TRIPOS>ATOM
      1 CA         27.5023   -0.2703   -0.5760 C.3       0 UNK        -0.2020 
      2 C          27.2291   -1.2226   -1.7289 C.2       0 UNK         0.4855 
      3 O          26.8060   -0.7835   -2.8005 O.2       0 UNK        -0.5197 
      4 N          27.4813   -2.5244   -1.5285 N.am      1 UNK        -0.4892 
      5 CA         27.2378   -3.5789   -2.5237 C.3       1 UNK         0.0835 
      6 C6         27.8708   -4.9416   -2.1424 C.3       12 UNK        -0.0855 
      7 S7         29.6376   -4.8170   -1.6962 S.3       12 UNK        -0.2931 
      8 C8         30.4225   -4.6434   -3.3338 C.3       12 UNK         0.0378 
      9 C9         31.4954   -3.5603   -3.3432 C.ar      12 UNK        -0.0802 
     10 C10        32.7837   -3.8444   -3.8071 C.ar      12 UNK        -0.0944 
     11 C11        33.7598   -2.8425   -3.8656 C.ar      12 UNK        -0.0787 
     12 C12        33.4402   -1.5515   -3.4335 C.ar      12 UNK        -0.0862 
     13 C13        32.1583   -1.2522   -2.9612 C.ar      12 UNK        -0.0733 
     14 C14        31.1925   -2.2620   -2.9205 C.ar      12 UNK        -0.0832 
     15 C15        31.8364    0.1501   -2.4576 C.3       12 UNK         0.0240 
     16 S16        31.1983    1.2406   -3.7723 S.3       12 UNK        -0.2522 
     17 C17        29.4304    0.8028   -3.7902 C.3       12 UNK        -0.0967 
     18 CA         28.7864    0.9339   -5.1914 C.3       5 UNK         0.0660 
     19 N          27.7507   -0.0801   -5.4131 N.am      5 UNK        -0.4015 
     20 C          27.3427   -0.4657   -6.6292 C.2       4 UNK         0.4946 
     21 O          27.8482   -0.0562   -7.6748 O.2       4 UNK        -0.5353 
     22 CA         26.1838   -1.4698   -6.7192 C.3       4 UNK         0.0277 
     23 CB         26.7226   -2.9020   -6.8516 C.3       4 UNK        -0.1981 
     24 N          25.2294   -1.4035   -5.6094 N.am      4 UNK        -0.4209 
     25 C          24.4392   -0.3472   -5.3526 C.2       3 UNK         0.4942 
     26 O          24.5345    0.7173   -5.9632 O.2       3 UNK        -0.5208 
     27 CA         23.3624   -0.4702   -4.2591 C.3       3 UNK         0.0250 
     28 CB         21.9567   -0.2086   -4.8302 C.3       3 UNK        -0.1990 
     29 N          23.3889   -1.7702   -3.5905 N.am      3 UNK        -0.4232 
     30 C          23.1139   -1.9908   -2.3018 C.2       2 UNK         0.4993 
     31 O          22.6699   -1.1384   -1.5320 O.2       2 UNK        -0.5286 
     32 CA         23.4545   -3.3926   -1.7660 C.3       2 UNK         0.0209 
     33 CB         22.6750   -4.5126   -2.4877 C.3       2 UNK        -0.1931 
     34 N          24.9068   -3.6226   -1.7680 N.am      2 UNK        -0.4546 
     35 C          25.7325   -3.7231   -2.8229 C.2       1 UNK         0.5154 
     36 O          25.3514   -3.8133   -3.9916 O.2       1 UNK        -0.5181 
     37 C          28.2341    2.3497   -5.4463 C.2       5 UNK         0.5014 
     38 O          28.9242    3.1691   -6.0526 O.2       5 UNK        -0.5248 
     39 N          26.9828    2.5982   -5.0280 N.am      6 UNK        -0.4434 
     40 CA         26.2579    3.8503   -5.2681 C.3       6 UNK         0.0363 
     41 CB         24.9858    3.8860   -4.4055 C.3       6 UNK        -0.1936 
     42 C          25.9184    4.0532   -6.7549 C.2       6 UNK         0.5081 
     43 O          26.0171    5.1737   -7.2547 O.2       6 UNK        -0.5248 
     44 N          25.5657    2.9581   -7.4415 N.am      7 UNK        -0.4718 
     45 CA         25.3369    2.9055   -8.8882 C.3       7 UNK         0.0273 
     46 CB         24.5702    1.6134   -9.2161 C.3       7 UNK        -0.1935 
     47 C          26.6289    2.9819   -9.7263 C.2       7 UNK         0.5018 
     48 O          26.5352    3.1599  -10.9413 O.2       7 UNK        -0.5186 
     49 N          27.7944    2.8209   -9.0790 N.am      8 UNK        -0.4240 
     50 CA         29.1430    2.7526   -9.6574 C.3       8 UNK         0.0235 
     51 CB         29.5397    4.0963  -10.3053 C.3       8 UNK        -0.2000 
     52 C          29.3410    1.5449  -10.5971 C.2       8 UNK         0.4941 
     53 O          30.1217    1.6235  -11.5477 O.2       8 UNK        -0.5273 
     54 N          28.6357    0.4455  -10.3044 N.am      9 UNK        -0.4262 
     55 CA         28.7754   -0.8495  -10.9671 C.3       9 UNK         0.0264 
     56 CB         27.4208   -1.5768  -10.9443 C.3       9 UNK        -0.1955 
     57 C          29.8600   -1.6996  -10.2869 C.2       9 UNK         0.5031 
     58 O          30.5688   -2.4360  -10.9751 O.2       9 UNK        -0.5390 
     59 N          29.9747   -1.5793   -8.9566 N.am      10 UNK        -0.4204 
     60 CA         31.0291   -2.1962   -8.1519 C.3       10 UNK         0.0237 
     61 CB         30.5346   -2.3580   -6.7035 C.3       10 UNK        -0.1985 
     62 C          32.3298   -1.3758   -8.1962 C.2       10 UNK         0.4970 
     63 O          32.3530   -0.2579   -8.7158 O.2       10 UNK        -0.4914 
     64 N          33.3831   -1.9524   -7.6105 N.am      11 UNK        -0.4285 
     65 CA         34.7316   -1.3856   -7.4484 C.3       11 UNK         0.1007 
     66 C          34.8554   -0.1120   -6.5561 C.2       11 UNK         0.5703 
     67 N          33.7877    0.4089   -5.9688 N.am      11 UNK        -0.7361 
     68 O          35.9482    0.4311   -6.4115 O.2       11 UNK        -0.4986 
     69 C69        35.7755   -2.4844   -7.0770 C.3       12 UNK        -0.0947 
     70 S70        35.1688   -3.8647   -6.0385 S.3       12 UNK        -0.2240 
     71 C71        35.1677   -3.1658   -4.3556 C.3       12 UNK         0.0194 
     72 H72        28.3281    0.3955   -0.8234 H         1 UNK         0.0906 
     73 H73        26.6203    0.3384   -0.3786 H         1 UNK         0.0906 
     74 H74        27.7577   -0.8028    0.3399 H         1 UNK         0.0906 
     75 H75        27.8659   -2.8344   -0.6465 H         1 UNK         0.3140 
     76 H76        27.7033   -3.2461   -3.4535 H         1 UNK         0.1085 
     77 H77        27.7639   -5.6572   -2.9603 H         1 UNK         0.0836 
     78 H78        27.3483   -5.3795   -1.2895 H         1 UNK         0.0836 
     79 H79        29.6797   -4.3955   -4.0924 H         1 UNK         0.0731 
     80 H80        30.8404   -5.6095   -3.6211 H         1 UNK         0.0731 
     81 H81        33.0291   -4.8455   -4.1347 H         1 UNK         0.1312 
     82 H82        34.1930   -0.7756   -3.4578 H         1 UNK         0.1406 
     83 H83        30.2033   -2.0498   -2.5428 H         1 UNK         0.1631 
     84 H84        32.7383    0.6034   -2.0435 H         1 UNK         0.0717 
     85 H85        31.1211    0.1056   -1.6348 H         1 UNK         0.0717 
     86 H86        29.3561   -0.2306   -3.4630 H         1 UNK         0.0934 
     87 H87        28.9009    1.3894   -3.0369 H         1 UNK         0.0934 
     88 H88        29.5653    0.7652   -5.9383 H         1 UNK         0.0739 
     89 H89        27.2874   -0.4481   -4.5841 H         1 UNK         0.3093 
     90 H90        25.6325   -1.2371   -7.6322 H         1 UNK         0.0818 
     91 H91        27.3934   -2.9922   -7.7070 H         1 UNK         0.0819 
     92 H92        27.2764   -3.2095   -5.9644 H         1 UNK         0.0819 
     93 H93        25.9135   -3.6169   -7.0023 H         1 UNK         0.0819 
     94 H94        25.1754   -2.2354   -5.0316 H         1 UNK         0.3041 
     95 H95        23.5915    0.3074   -3.5271 H         1 UNK         0.0784 
     96 H96        21.9050    0.7653   -5.3192 H         1 UNK         0.0793 
     97 H97        21.6776   -0.9613   -5.5682 H         1 UNK         0.0793 
     98 H98        21.2020   -0.2136   -4.0436 H         1 UNK         0.0793 
     99 H99        23.7722   -2.5499   -4.1113 H         1 UNK         0.3024 
    100 H100       23.1462   -3.4093   -0.7189 H         1 UNK         0.1171 
    101 H101       22.8919   -5.4864   -2.0489 H         1 UNK         0.0786 
    102 H102       21.5999   -4.3513   -2.3995 H         1 UNK         0.0786 
    103 H103       22.9038   -4.5706   -3.5516 H         1 UNK         0.0786 
    104 H104       25.3493   -3.5135   -0.8657 H         1 UNK         0.2977 
    105 H105       26.4650    1.8550   -4.5811 H         1 UNK         0.3127 
    106 H106       26.9021    4.6765   -4.9594 H         1 UNK         0.0770 
    107 H107       24.2976    3.0794   -4.6607 H         1 UNK         0.0814 
    108 H108       24.4495    4.8256   -4.5446 H         1 UNK         0.0814 
    109 H109       25.2224    3.8032   -3.3447 H         1 UNK         0.0814 
    110 H110       25.4124    2.0942   -6.9254 H         1 UNK         0.2983 
    111 H111       24.7150    3.7582   -9.1691 H         1 UNK         0.0947 
    112 H112       24.3196    1.5640  -10.2766 H         1 UNK         0.0806 
    113 H113       23.6353    1.5526   -8.6586 H         1 UNK         0.0806 
    114 H114       25.1596    0.7273   -8.9792 H         1 UNK         0.0806 
    115 H115       27.7496    2.6835   -8.0778 H         1 UNK         0.3000 
    116 H116       29.8174    2.5844   -8.8160 H         1 UNK         0.0850 
    117 H117       30.5907    4.0941  -10.5967 H         1 UNK         0.0810 
    118 H118       29.3985    4.9264   -9.6130 H         1 UNK         0.0810 
    119 H119       28.9553    4.3027  -11.2023 H         1 UNK         0.0810 
    120 H120       28.0786    0.4556   -9.4533 H         1 UNK         0.3040 
    121 H121       29.0656   -0.6974  -12.0089 H         1 UNK         0.0766 
    122 H122       26.6558   -1.0020  -11.4666 H         1 UNK         0.0812 
    123 H123       27.0700   -1.7513   -9.9267 H         1 UNK         0.0812 
    124 H124       27.4912   -2.5473  -11.4375 H         1 UNK         0.0812 
    125 H125       29.3507   -0.9357   -8.4790 H         1 UNK         0.3205 
    126 H126       31.2426   -3.1888   -8.5547 H         1 UNK         0.0754 
    127 H127       31.2650   -2.8937   -6.0984 H         1 UNK         0.0769 
    128 H128       29.6118   -2.9332   -6.6598 H         1 UNK         0.0769 
    129 H129       30.3609   -1.3977   -6.2201 H         1 UNK         0.0769 
    130 H130       33.2651   -2.8593   -7.1821 H         1 UNK         0.2981 
    131 H131       35.0112   -1.0218   -8.4388 H         1 UNK         0.0541 
    132 H132       32.8817   -0.0118   -6.0875 H         1 UNK         0.3459 
    133 H133       33.8870    1.2406   -5.4101 H         1 UNK         0.3459 
    134 H134       36.6775   -2.0681   -6.6248 H         1 UNK         0.0612 
    135 H135       36.1222   -2.9460   -8.0027 H         1 UNK         0.0612 
    136 H136       35.6109   -3.8961   -3.6776 H         1 UNK         0.0624 
    137 H137       35.8108   -2.2853   -4.3196 H         1 UNK         0.0624 
@<TRIPOS>BOND
     1    1    2 1    
     2    1   72 1    
     3    1   73 1    
     4    1   74 1    
     5    2    3 2    
     6    2    4 am   BACKBONE|DICT|INTERRES
     7    4    5 1    
     8    4   75 1    
     9    5    6 1    
    10    5   35 1    
    11    5   76 1    
    12    6    7 1    
    13    6   77 1    
    14    6   78 1    
    15    7    8 1    
    16    8    9 1    
    17    8   79 1    
    18    8   80 1    
    19    9   10 ar   
    20    9   14 ar   
    21   10   11 ar   
    22   10   81 1    
    23   11   12 ar   
    24   11   71 1    
    25   12   13 ar   
    26   12   82 1    
    27   13   14 ar   
    28   13   15 1    
    29   14   83 1    
    30   15   16 1    
    31   15   84 1    
    32   15   85 1    
    33   16   17 1    
    34   17   18 1    
    35   17   86 1    
    36   17   87 1    
    37   18   19 1    
    38   18   37 1    
    39   18   88 1    
    40   19   20 am   BACKBONE|DICT|INTERRES
    41   19   89 1    
    42   20   21 2    
    43   20   22 1    
    44   22   23 1    
    45   22   24 1    
    46   22   90 1    
    47   23   91 1    
    48   23   92 1    
    49   23   93 1    
    50   24   25 am   BACKBONE|DICT|INTERRES
    51   24   94 1    
    52   25   26 2    
    53   25   27 1    
    54   27   28 1    
    55   27   29 1    
    56   27   95 1    
    57   28   96 1    
    58   28   97 1    
    59   28   98 1    
    60   29   30 am   BACKBONE|DICT|INTERRES
    61   29   99 1    
    62   30   31 2    
    63   30   32 1    
    64   32   33 1    
    65   32   34 1    
    66   32  100 1    
    67   33  101 1    
    68   33  102 1    
    69   33  103 1    
    70   34   35 am   BACKBONE|DICT|INTERRES
    71   34  104 1    
    72   35   36 2    
    73   37   38 2    
    74   37   39 am   BACKBONE|DICT|INTERRES
    75   39   40 1    
    76   39  105 1    
    77   40   41 1    
    78   40   42 1    
    79   40  106 1    
    80   41  107 1    
    81   41  108 1    
    82   41  109 1    
    83   42   43 2    
    84   42   44 am   BACKBONE|DICT|INTERRES
    85   44   45 1    
    86   44  110 1    
    87   45   46 1    
    88   45   47 1    
    89   45  111 1    
    90   46  112 1    
    91   46  113 1    
    92   46  114 1    
    93   47   48 2    
    94   47   49 am   BACKBONE|DICT|INTERRES
    95   49   50 1    
    96   49  115 1    
    97   50   51 1    
    98   50   52 1    
    99   50  116 1    
   100   51  117 1    
   101   51  118 1    
   102   51  119 1    
   103   52   53 2    
   104   52   54 am   BACKBONE|DICT|INTERRES
   105   54   55 1    
   106   54  120 1    
   107   55   56 1    
   108   55   57 1    
   109   55  121 1    
   110   56  122 1    
   111   56  123 1    
   112   56  124 1    
   113   57   58 2    
   114   57   59 am   BACKBONE|DICT|INTERRES
   115   59   60 1    
   116   59  125 1    
   117   60   61 1    
   118   60   62 1    
   119   60  126 1    
   120   61  127 1    
   121   61  128 1    
   122   61  129 1    
   123   62   63 2    
   124   62   64 am   BACKBONE|DICT|INTERRES
   125   64   65 1    
   126   64  130 1    
   127   65   66 1    
   128   65   69 1    
   129   65  131 1    
   130   66   67 am   BACKBONE|DICT|INTERRES
   131   66   68 2    
   132   67  132 1    
   133   67  133 1    
   134   69   70 1    
   135   69  134 1    
   136   69  135 1    
   137   70   71 1    
   138   71  136 1    
   139   71  137 1    
@<TRIPOS>SUBSTRUCTURE
     1 UNK         1 GROUP             0       ****    0 ROOT    
