@<TRIPOS>MOLECULE
3R137
137   139    1
SMALL
USER_CHARGES


@<TRIPOS>ATOM
      1 CA         25.6623   -4.9773   -2.6919 C.3       0 UNK        -0.2020 
      2 C          25.9602   -3.6164   -2.0820 C.2       0 UNK         0.4855 
      3 O          25.0781   -3.0054   -1.4785 O.2       0 UNK        -0.5197 
      4 N          27.1990   -3.1326   -2.2348 N.am      1 UNK        -0.4892 
      5 CA         27.6387   -1.8149   -1.7680 C.3       1 UNK         0.0835 
      6 C6         29.1773   -1.6693   -1.8446 C.3       12 UNK        -0.0855 
      7 S7         30.0473   -2.5113   -0.4768 S.3       12 UNK        -0.2931 
      8 C8         30.1491   -4.2581   -1.0015 C.3       12 UNK         0.0378 
      9 C9         30.6546   -4.4491   -2.4266 C.ar      12 UNK        -0.0802 
     10 C10        31.8493   -3.8554   -2.8516 C.ar      12 UNK        -0.0944 
     11 C11        32.2987   -4.0133   -4.1669 C.ar      12 UNK        -0.0787 
     12 C12        31.5501   -4.7992   -5.0498 C.ar      12 UNK        -0.0862 
     13 C13        30.3478   -5.3833   -4.6428 C.ar      12 UNK        -0.0733 
     14 C14        29.9147   -5.2231   -3.3254 C.ar      12 UNK        -0.0832 
     15 C15        29.4774   -6.1143   -5.6552 C.3       12 UNK         0.0240 
     16 S16        28.0405   -5.1051   -6.1603 S.3       12 UNK        -0.2522 
     17 C17        28.8009   -3.4536   -6.3519 C.3       12 UNK        -0.0967 
     18 CA         27.9065   -2.4110   -7.0575 C.3       5 UNK         0.0660 
     19 N          26.5478   -2.3903   -6.5085 N.am      5 UNK        -0.4015 
     20 C          25.5599   -1.5421   -6.8163 C.2       4 UNK         0.4946 
     21 O          25.7089   -0.5228   -7.4900 O.2       4 UNK        -0.5353 
     22 CA         24.1630   -1.9047   -6.3022 C.3       4 UNK         0.0277 
     23 CB         23.9209   -3.4260   -6.1843 C.3       4 UNK        -0.1981 
     24 N          23.9257   -1.2537   -5.0181 N.am      4 UNK        -0.4209 
     25 C          22.7127   -0.9070   -4.5616 C.2       3 UNK         0.4942 
     26 O          21.6718   -1.0889   -5.1954 O.2       3 UNK        -0.5208 
     27 CA         22.6154   -0.2674   -3.1629 C.3       3 UNK         0.0250 
     28 CB         21.9973   -1.2557   -2.1599 C.3       3 UNK        -0.1990 
     29 N          23.9046    0.1940   -2.6477 N.am      3 UNK        -0.4232 
     30 C          24.5227    1.3119   -3.0531 C.2       2 UNK         0.4993 
     31 O          24.0183    2.1219   -3.8298 O.2       2 UNK        -0.5286 
     32 CA         25.9448    1.5726   -2.5233 C.3       2 UNK         0.0209 
     33 CB         25.9409    2.7234   -1.5039 C.3       2 UNK        -0.1931 
     34 N          26.5963    0.4015   -1.9209 N.am      2 UNK        -0.4546 
     35 C          26.9502   -0.7059   -2.5863 C.2       1 UNK         0.5154 
     36 O          26.7658   -0.8597   -3.7972 O.2       1 UNK        -0.5181 
     37 C          28.6308   -1.0514   -7.0572 C.2       5 UNK         0.5014 
     38 O          29.2221   -0.6947   -8.0746 O.2       5 UNK        -0.5248 
     39 N          28.5726   -0.3253   -5.9312 N.am      6 UNK        -0.4434 
     40 CA         29.2571    0.9597   -5.7514 C.3       6 UNK         0.0363 
     41 CB         29.6423    1.1511   -4.2764 C.3       6 UNK        -0.1936 
     42 C          28.4609    2.1618   -6.2950 C.2       6 UNK         0.5081 
     43 O          28.9714    3.2820   -6.2537 O.2       6 UNK        -0.5248 
     44 N          27.2394    1.9285   -6.7942 N.am      7 UNK        -0.4718 
     45 CA         26.4877    2.8897   -7.6022 C.3       7 UNK         0.0273 
     46 CB         25.0014    2.8511   -7.2119 C.3       7 UNK        -0.1935 
     47 C          26.6721    2.5852   -9.0974 C.2       7 UNK         0.5018 
     48 O          26.8131    3.5172   -9.8897 O.2       7 UNK        -0.5186 
     49 N          26.6721    1.2922   -9.4552 N.am      8 UNK        -0.4240 
     50 CA         26.8528    0.7899  -10.8189 C.3       8 UNK         0.0235 
     51 CB         26.5031   -0.7070  -10.8529 C.3       8 UNK        -0.2000 
     52 C          28.2650    1.0235  -11.3846 C.2       8 UNK         0.4941 
     53 O          28.3939    1.3034  -12.5775 O.2       8 UNK        -0.5273 
     54 N          29.2892    0.9014  -10.5344 N.am      9 UNK        -0.4262 
     55 CA         30.6985    1.1118  -10.8555 C.3       9 UNK         0.0264 
     56 CB         31.3552   -0.2526  -11.1336 C.3       9 UNK        -0.1955 
     57 C          31.3759    1.8181   -9.6753 C.2       9 UNK         0.5031 
     58 O          30.7917    1.9135   -8.5963 O.2       9 UNK        -0.5390 
     59 N          32.6181    2.2751   -9.8679 N.am      10 UNK        -0.4204 
     60 CA         33.4290    2.9401   -8.8400 C.3       10 UNK         0.0237 
     61 CB         34.4734    3.8355   -9.5349 C.3       10 UNK        -0.1985 
     62 C          34.0653    1.9457   -7.8419 C.2       10 UNK         0.4970 
     63 O          35.2702    2.0204   -7.5922 O.2       10 UNK        -0.4914 
     64 N          33.2609    1.0181   -7.3062 N.am      11 UNK        -0.4285 
     65 CA         33.6843    0.0171   -6.3163 C.3       11 UNK         0.1007 
     66 C          33.9138    0.6401   -4.9132 C.2       11 UNK         0.5703 
     67 N          34.9141    0.1718   -4.1793 N.am      11 UNK        -0.7361 
     68 O          33.1738    1.5179   -4.4738 O.2       11 UNK        -0.4986 
     69 C69        32.7110   -1.1983   -6.2613 C.3       12 UNK        -0.0947 
     70 S70        33.6222   -2.7775   -6.3377 S.3       12 UNK        -0.2240 
     71 C71        33.6049   -3.3516   -4.6023 C.3       12 UNK         0.0194 
     72 H72        24.6800   -4.9723   -3.1631 H         1 UNK         0.0906 
     73 H73        26.3971   -5.2544   -3.4473 H         1 UNK         0.0906 
     74 H74        25.6612   -5.7423   -1.9162 H         1 UNK         0.0906 
     75 H75        27.8799   -3.6530   -2.7661 H         1 UNK         0.3140 
     76 H76        27.3253   -1.7065   -0.7269 H         1 UNK         0.1085 
     77 H77        29.5611   -1.9975   -2.8120 H         1 UNK         0.0836 
     78 H78        29.4639   -0.6190   -1.7610 H         1 UNK         0.0836 
     79 H79        30.8174   -4.7871   -0.3208 H         1 UNK         0.0731 
     80 H80        29.1662   -4.7135   -0.8726 H         1 UNK         0.0731 
     81 H81        32.4229   -3.2583   -2.1557 H         1 UNK         0.1312 
     82 H82        31.8832   -4.9314   -6.0696 H         1 UNK         0.1406 
     83 H83        28.9877   -5.6847   -3.0135 H         1 UNK         0.1631 
     84 H84        29.1252   -7.0559   -5.2315 H         1 UNK         0.0717 
     85 H85        30.0562   -6.3741   -6.5429 H         1 UNK         0.0717 
     86 H86        29.0712   -3.0984   -5.3550 H         1 UNK         0.0934 
     87 H87        29.7372   -3.5669   -6.9027 H         1 UNK         0.0934 
     88 H88        27.8011   -2.7143   -8.1010 H         1 UNK         0.0739 
     89 H89        26.3189   -3.1875   -5.9341 H         1 UNK         0.3093 
     90 H90        23.4610   -1.5075   -7.0390 H         1 UNK         0.0818 
     91 H91        22.8703   -3.6395   -5.9867 H         1 UNK         0.0819 
     92 H92        24.1801   -3.9404   -7.1109 H         1 UNK         0.0819 
     93 H93        24.5012   -3.8757   -5.3789 H         1 UNK         0.0819 
     94 H94        24.7509   -1.0367   -4.4688 H         1 UNK         0.3041 
     95 H95        21.9471    0.5926   -3.2449 H         1 UNK         0.0784 
     96 H96        21.0035   -1.5689   -2.4832 H         1 UNK         0.0793 
     97 H97        22.6022   -2.1567   -2.0549 H         1 UNK         0.0793 
     98 H98        21.8883   -0.8060   -1.1729 H         1 UNK         0.0793 
     99 H99        24.3851   -0.4229   -2.0070 H         1 UNK         0.3024 
    100 H100       26.5365    1.8842   -3.3867 H         1 UNK         0.1171 
    101 H101       25.4915    3.6220   -1.9295 H         1 UNK         0.0786 
    102 H102       26.9537    2.9863   -1.1976 H         1 UNK         0.0786 
    103 H103       25.3726    2.4680   -0.6087 H         1 UNK         0.0786 
    104 H104       26.7830    0.4565   -0.9292 H         1 UNK         0.2977 
    105 H105       27.9793   -0.6441   -5.1668 H         1 UNK         0.3127 
    106 H106       30.1933    0.9266   -6.3104 H         1 UNK         0.0770 
    107 H107       28.7715    1.2626   -3.6356 H         1 UNK         0.0814 
    108 H108       30.2500    2.0483   -4.1509 H         1 UNK         0.0814 
    109 H109       30.2372    0.3140   -3.9124 H         1 UNK         0.0814 
    110 H110       26.8844    0.9784   -6.7863 H         1 UNK         0.2983 
    111 H111       26.8522    3.9039   -7.4245 H         1 UNK         0.0947 
    112 H112       24.4210    3.5463   -7.8197 H         1 UNK         0.0806 
    113 H113       24.8631    3.1405   -6.1707 H         1 UNK         0.0806 
    114 H114       24.5656    1.8606   -7.3434 H         1 UNK         0.0806 
    115 H115       26.4736    0.5960   -8.7401 H         1 UNK         0.3000 
    116 H116       26.1484    1.3202  -11.4633 H         1 UNK         0.0850 
    117 H117       26.5976   -1.1082  -11.8628 H         1 UNK         0.0810 
    118 H118       25.4773   -0.8824  -10.5278 H         1 UNK         0.0810 
    119 H119       27.1623   -1.2878  -10.2064 H         1 UNK         0.0810 
    120 H120       29.1143    0.6689   -9.5589 H         1 UNK         0.3040 
    121 H121       30.7935    1.7550  -11.7328 H         1 UNK         0.0766 
    122 H122       32.4076   -0.1437  -11.3974 H         1 UNK         0.0812 
    123 H123       30.8667   -0.7637  -11.9634 H         1 UNK         0.0812 
    124 H124       31.3010   -0.9065  -10.2616 H         1 UNK         0.0812 
    125 H125       33.0576    2.1310  -10.7660 H         1 UNK         0.3205 
    126 H126       32.7794    3.5944   -8.2541 H         1 UNK         0.0754 
    127 H127       35.0542    4.4007   -8.8046 H         1 UNK         0.0769 
    128 H128       33.9976    4.5613  -10.1948 H         1 UNK         0.0769 
    129 H129       35.1761    3.2502  -10.1294 H         1 UNK         0.0769 
    130 H130       32.2729    1.0621   -7.5322 H         1 UNK         0.2981 
    131 H131       34.6566   -0.3368   -6.6663 H         1 UNK         0.0541 
    132 H132       35.5252   -0.5481   -4.5312 H         1 UNK         0.3459 
    133 H133       35.0701    0.5586   -3.2620 H         1 UNK         0.3459 
    134 H134       32.0359   -1.1911   -7.1190 H         1 UNK         0.0612 
    135 H135       32.0598   -1.1799   -5.3846 H         1 UNK         0.0612 
    136 H136       33.8430   -2.5100   -3.9507 H         1 UNK         0.0624 
    137 H137       34.4092   -4.0769   -4.4753 H         1 UNK         0.0624 
@<TRIPOS>BOND
     1    1    2 1    
     2    1   72 1    
     3    1   73 1    
     4    1   74 1    
     5    2    3 2    
     6    2    4 am   BACKBONE|DICT|INTERRES
     7    4    5 1    
     8    4   75 1    
     9    5    6 1    
    10    5   35 1    
    11    5   76 1    
    12    6    7 1    
    13    6   77 1    
    14    6   78 1    
    15    7    8 1    
    16    8    9 1    
    17    8   79 1    
    18    8   80 1    
    19    9   10 ar   
    20    9   14 ar   
    21   10   11 ar   
    22   10   81 1    
    23   11   12 ar   
    24   11   71 1    
    25   12   13 ar   
    26   12   82 1    
    27   13   14 ar   
    28   13   15 1    
    29   14   83 1    
    30   15   16 1    
    31   15   84 1    
    32   15   85 1    
    33   16   17 1    
    34   17   18 1    
    35   17   86 1    
    36   17   87 1    
    37   18   19 1    
    38   18   37 1    
    39   18   88 1    
    40   19   20 am   BACKBONE|DICT|INTERRES
    41   19   89 1    
    42   20   21 2    
    43   20   22 1    
    44   22   23 1    
    45   22   24 1    
    46   22   90 1    
    47   23   91 1    
    48   23   92 1    
    49   23   93 1    
    50   24   25 am   BACKBONE|DICT|INTERRES
    51   24   94 1    
    52   25   26 2    
    53   25   27 1    
    54   27   28 1    
    55   27   29 1    
    56   27   95 1    
    57   28   96 1    
    58   28   97 1    
    59   28   98 1    
    60   29   30 am   BACKBONE|DICT|INTERRES
    61   29   99 1    
    62   30   31 2    
    63   30   32 1    
    64   32   33 1    
    65   32   34 1    
    66   32  100 1    
    67   33  101 1    
    68   33  102 1    
    69   33  103 1    
    70   34   35 am   BACKBONE|DICT|INTERRES
    71   34  104 1    
    72   35   36 2    
    73   37   38 2    
    74   37   39 am   BACKBONE|DICT|INTERRES
    75   39   40 1    
    76   39  105 1    
    77   40   41 1    
    78   40   42 1    
    79   40  106 1    
    80   41  107 1    
    81   41  108 1    
    82   41  109 1    
    83   42   43 2    
    84   42   44 am   BACKBONE|DICT|INTERRES
    85   44   45 1    
    86   44  110 1    
    87   45   46 1    
    88   45   47 1    
    89   45  111 1    
    90   46  112 1    
    91   46  113 1    
    92   46  114 1    
    93   47   48 2    
    94   47   49 am   BACKBONE|DICT|INTERRES
    95   49   50 1    
    96   49  115 1    
    97   50   51 1    
    98   50   52 1    
    99   50  116 1    
   100   51  117 1    
   101   51  118 1    
   102   51  119 1    
   103   52   53 2    
   104   52   54 am   BACKBONE|DICT|INTERRES
   105   54   55 1    
   106   54  120 1    
   107   55   56 1    
   108   55   57 1    
   109   55  121 1    
   110   56  122 1    
   111   56  123 1    
   112   56  124 1    
   113   57   58 2    
   114   57   59 am   BACKBONE|DICT|INTERRES
   115   59   60 1    
   116   59  125 1    
   117   60   61 1    
   118   60   62 1    
   119   60  126 1    
   120   61  127 1    
   121   61  128 1    
   122   61  129 1    
   123   62   63 2    
   124   62   64 am   BACKBONE|DICT|INTERRES
   125   64   65 1    
   126   64  130 1    
   127   65   66 1    
   128   65   69 1    
   129   65  131 1    
   130   66   67 am   BACKBONE|DICT|INTERRES
   131   66   68 2    
   132   67  132 1    
   133   67  133 1    
   134   69   70 1    
   135   69  134 1    
   136   69  135 1    
   137   70   71 1    
   138   71  136 1    
   139   71  137 1    
@<TRIPOS>SUBSTRUCTURE
     1 UNK         1 GROUP             0       ****    0 ROOT    
