@<TRIPOS>MOLECULE
3R137
137   139    1
SMALL
USER_CHARGES


@<TRIPOS>ATOM
      1 CA         25.6276   -6.9387   -4.4289 C.3       0 UNK        -0.2020 
      2 C          25.7855   -5.9767   -3.2615 C.2       0 UNK         0.4855 
      3 O          24.8120   -5.3404   -2.8556 O.2       0 UNK        -0.5197 
      4 N          27.0032   -5.8612   -2.7150 N.am      1 UNK        -0.4892 
      5 CA         27.3408   -4.9168   -1.6459 C.3       1 UNK         0.0835 
      6 C6         28.7163   -5.2423   -1.0158 C.3       12 UNK        -0.0855 
      7 S7         29.0763   -4.2363    0.4694 S.3       12 UNK        -0.2931 
      8 C8         30.7504   -3.6011    0.1285 C.3       12 UNK         0.0378 
      9 C9         30.8118   -2.6709   -1.0781 C.ar      12 UNK        -0.0802 
     10 C10        31.2853   -3.1503   -2.3022 C.ar      12 UNK        -0.0944 
     11 C11        31.4055   -2.2987   -3.4014 C.ar      12 UNK        -0.0787 
     12 C12        31.0633   -0.9504   -3.2701 C.ar      12 UNK        -0.0862 
     13 C13        30.5887   -0.4519   -2.0519 C.ar      12 UNK        -0.0733 
     14 C14        30.4544   -1.3225   -0.9619 C.ar      12 UNK        -0.0832 
     15 C15        30.2861    1.0347   -1.8884 C.3       12 UNK         0.0240 
     16 S16        28.7849    1.5661   -2.7759 S.3       12 UNK        -0.2522 
     17 C17        29.4545    2.1570   -4.3676 C.3       12 UNK        -0.0967 
     18 CA         28.6050    1.8004   -5.6142 C.3       5 UNK         0.0660 
     19 N          28.2263    0.3872   -5.7023 N.am      5 UNK        -0.4015 
     20 C          27.9734   -0.2336   -6.8636 C.2       4 UNK         0.4946 
     21 O          28.0984    0.3062   -7.9656 O.2       4 UNK        -0.5353 
     22 CA         27.5069   -1.6952   -6.7959 C.3       4 UNK         0.0277 
     23 CB         28.6928   -2.6322   -6.5233 C.3       4 UNK        -0.1981 
     24 N          26.4620   -1.9141   -5.7951 N.am      4 UNK        -0.4209 
     25 C          25.2219   -1.4051   -5.8790 C.2       3 UNK         0.4942 
     26 O          24.8348   -0.7024   -6.8104 O.2       3 UNK        -0.5208 
     27 CA         24.2552   -1.6892   -4.7145 C.3       3 UNK         0.0250 
     28 CB         23.4612   -2.9767   -4.9822 C.3       3 UNK        -0.1990 
     29 N          24.9254   -1.7844   -3.4164 N.am      3 UNK        -0.4232 
     30 C          25.6843   -0.8171   -2.8794 C.2       2 UNK         0.4993 
     31 O          25.8052    0.2999   -3.3804 O.2       2 UNK        -0.5286 
     32 CA         26.4873   -1.1551   -1.6109 C.3       2 UNK         0.0209 
     33 CB         25.8652   -0.4794   -0.3793 C.3       2 UNK        -0.1931 
     34 N          26.6547   -2.5869   -1.3476 N.am      2 UNK        -0.4546 
     35 C          27.2538   -3.4657   -2.1642 C.2       1 UNK         0.5154 
     36 O          27.6934   -3.1805   -3.2825 O.2       1 UNK        -0.5181 
     37 C          27.3944    2.7344   -5.8105 C.2       5 UNK         0.5014 
     38 O          27.5594    3.7801   -6.4392 O.2       5 UNK        -0.5248 
     39 N          26.1976    2.3404   -5.3447 N.am      6 UNK        -0.4434 
     40 CA         24.9442    3.0732   -5.5719 C.3       6 UNK         0.0363 
     41 CB         23.8082    2.4435   -4.7526 C.3       6 UNK        -0.1936 
     42 C          24.5513    3.1605   -7.0584 C.2       6 UNK         0.5081 
     43 O          24.0593    4.2019   -7.4927 O.2       6 UNK        -0.5248 
     44 N          24.8141    2.0897   -7.8214 N.am      7 UNK        -0.4718 
     45 CA         24.6570    2.0416   -9.2794 C.3       7 UNK         0.0273 
     46 CB         24.5814    0.5707   -9.7231 C.3       7 UNK        -0.1935 
     47 C          25.7775    2.7694  -10.0488 C.2       7 UNK         0.5018 
     48 O          25.6825    2.8740  -11.2722 O.2       7 UNK        -0.5186 
     49 N          26.8218    3.2262   -9.3393 N.am      8 UNK        -0.4240 
     50 CA         28.0431    3.8660   -9.8437 C.3       8 UNK         0.0235 
     51 CB         27.7258    5.2055  -10.5427 C.3       8 UNK        -0.2000 
     52 C          28.9241    2.9359  -10.7024 C.2       8 UNK         0.4941 
     53 O          29.7448    3.4267  -11.4796 O.2       8 UNK        -0.5273 
     54 N          28.7649    1.6157  -10.5345 N.am      9 UNK        -0.4262 
     55 CA         29.6110    0.5950  -11.1528 C.3       9 UNK         0.0264 
     56 CB         28.8205   -0.7179  -11.2850 C.3       9 UNK        -0.1955 
     57 C          30.8914    0.3844  -10.3312 C.2       9 UNK         0.5031 
     58 O          31.9754    0.2941  -10.9101 O.2       9 UNK        -0.5390 
     59 N          30.7279    0.3398   -8.9997 N.am      10 UNK        -0.4204 
     60 CA         31.7533    0.1393   -7.9714 C.3       10 UNK         0.0237 
     61 CB         32.6923    1.3647   -7.9040 C.3       10 UNK        -0.1985 
     62 C          32.4953   -1.2071   -8.1156 C.2       10 UNK         0.4970 
     63 O          31.9616   -2.1448   -8.7127 O.2       10 UNK        -0.4914 
     64 N          33.6843   -1.2967   -7.5134 N.am      11 UNK        -0.4285 
     65 CA         34.5244   -2.5029   -7.4608 C.3       11 UNK         0.1007 
     66 C          36.0414   -2.1919   -7.3006 C.2       11 UNK         0.5703 
     67 N          36.4937   -0.9624   -7.5247 N.am      11 UNK        -0.7361 
     68 O          36.8327   -3.0802   -6.9925 O.2       11 UNK        -0.4986 
     69 C69        33.9837   -3.5650   -6.4588 C.3       12 UNK        -0.0947 
     70 S70        33.7251   -2.9257   -4.7671 S.3       12 UNK        -0.2240 
     71 C71        31.9097   -2.8416   -4.7270 C.3       12 UNK         0.0194 
     72 H72        25.2916   -6.4001   -5.3146 H         1 UNK         0.0906 
     73 H73        26.5628   -7.4424   -4.6726 H         1 UNK         0.0906 
     74 H74        24.8847   -7.6993   -4.1902 H         1 UNK         0.0906 
     75 H75        27.7761   -6.3801   -3.1071 H         1 UNK         0.3140 
     76 H76        26.5853   -5.0436   -0.8666 H         1 UNK         0.1085 
     77 H77        29.5077   -5.1369   -1.7569 H         1 UNK         0.0836 
     78 H78        28.7393   -6.2891   -0.7086 H         1 UNK         0.0836 
     79 H79        31.4301   -4.4445   -0.0041 H         1 UNK         0.0731 
     80 H80        31.1062   -3.0677    1.0112 H         1 UNK         0.0731 
     81 H81        31.5763   -4.1871   -2.4008 H         1 UNK         0.1312 
     82 H82        31.1831   -0.2913   -4.1162 H         1 UNK         0.1406 
     83 H83        30.1000   -0.9475   -0.0112 H         1 UNK         0.1631 
     84 H84        31.1441    1.6242   -2.2145 H         1 UNK         0.0717 
     85 H85        30.1503    1.2730   -0.8324 H         1 UNK         0.0717 
     86 H86        29.5956    3.2376   -4.2972 H         1 UNK         0.0934 
     87 H87        30.4586    1.7582   -4.5044 H         1 UNK         0.0934 
     88 H88        29.2565    2.0056   -6.4675 H         1 UNK         0.0739 
     89 H89        28.0745   -0.0966   -4.8282 H         1 UNK         0.3093 
     90 H90        27.0920   -1.9501   -7.7736 H         1 UNK         0.0818 
     91 H91        29.4896   -2.4825   -7.2534 H         1 UNK         0.0819 
     92 H92        29.1151   -2.4659   -5.5321 H         1 UNK         0.0819 
     93 H93        28.3918   -3.6781   -6.5828 H         1 UNK         0.0819 
     94 H94        26.7219   -2.4482   -4.9711 H         1 UNK         0.3041 
     95 H95        23.5481   -0.8607   -4.6569 H         1 UNK         0.0784 
     96 H96        22.8997   -2.9001   -5.9144 H         1 UNK         0.0793 
     97 H97        24.1163   -3.8443   -5.0681 H         1 UNK         0.0793 
     98 H98        22.7430   -3.1760   -4.1867 H         1 UNK         0.0793 
     99 H99        24.8891   -2.6804   -2.9495 H         1 UNK         0.3024 
    100 H100       27.4884   -0.7482   -1.7559 H         1 UNK         0.1171 
    101 H101       26.4853   -0.6196    0.5063 H         1 UNK         0.0786 
    102 H102       25.7664    0.5962   -0.5346 H         1 UNK         0.0786 
    103 H103       24.8707   -0.8713   -0.1627 H         1 UNK         0.0786 
    104 H104       26.3279   -2.9137   -0.4495 H         1 UNK         0.2977 
    105 H105       26.1369    1.5044   -4.7648 H         1 UNK         0.3127 
    106 H106       25.0932    4.0934   -5.2119 H         1 UNK         0.0770 
    107 H107       23.6065    1.4213   -5.0704 H         1 UNK         0.0814 
    108 H108       22.8832    3.0096   -4.8688 H         1 UNK         0.0814 
    109 H109       24.0464    2.4256   -3.6890 H         1 UNK         0.0814 
    110 H110       25.1401    1.2367   -7.3762 H         1 UNK         0.2983 
    111 H111       23.7159    2.5283   -9.5445 H         1 UNK         0.0947 
    112 H112       24.4342    0.4891  -10.8009 H         1 UNK         0.0806 
    113 H113       23.7480    0.0554   -9.2454 H         1 UNK         0.0806 
    114 H114       25.4958    0.0291   -9.4758 H         1 UNK         0.0806 
    115 H115       26.7894    3.1111   -8.3331 H         1 UNK         0.3000 
    116 H116       28.6401    4.0966   -8.9603 H         1 UNK         0.0850 
    117 H117       28.6399    5.7572  -10.7650 H         1 UNK         0.0810 
    118 H118       27.1093    5.8454   -9.9113 H         1 UNK         0.0810 
    119 H119       27.2007    5.0572  -11.4866 H         1 UNK         0.0810 
    120 H120       28.1125    1.2958   -9.8273 H         1 UNK         0.3040 
    121 H121       29.8974    0.9213  -12.1552 H         1 UNK         0.0766 
    122 H122       27.9317   -0.5831  -11.9017 H         1 UNK         0.0812 
    123 H123       28.4996   -1.1022  -10.3160 H         1 UNK         0.0812 
    124 H124       29.4288   -1.4911  -11.7561 H         1 UNK         0.0812 
    125 H125       29.7698    0.3781   -8.6557 H         1 UNK         0.3205 
    126 H126       31.2146    0.0833   -7.0245 H         1 UNK         0.0754 
    127 H127       33.3145    1.3488   -7.0088 H         1 UNK         0.0769 
    128 H128       32.1222    2.2935   -7.8713 H         1 UNK         0.0769 
    129 H129       33.3542    1.4154   -8.7697 H         1 UNK         0.0769 
    130 H130       34.0423   -0.5014   -7.0058 H         1 UNK         0.2981 
    131 H131       34.4745   -2.9596   -8.4509 H         1 UNK         0.0541 
    132 H132       35.8897   -0.2312   -7.8614 H         1 UNK         0.3459 
    133 H133       37.4807   -0.7846   -7.4211 H         1 UNK         0.3459 
    134 H134       33.0422   -3.9679   -6.8345 H         1 UNK         0.0612 
    135 H135       34.6530   -4.4249   -6.4026 H         1 UNK         0.0612 
    136 H136       31.4948   -3.8360   -4.8995 H         1 UNK         0.0624 
    137 H137       31.5597   -2.2141   -5.5459 H         1 UNK         0.0624 
@<TRIPOS>BOND
     1    1    2 1    
     2    1   72 1    
     3    1   73 1    
     4    1   74 1    
     5    2    3 2    
     6    2    4 am   BACKBONE|DICT|INTERRES
     7    4    5 1    
     8    4   75 1    
     9    5    6 1    
    10    5   35 1    
    11    5   76 1    
    12    6    7 1    
    13    6   77 1    
    14    6   78 1    
    15    7    8 1    
    16    8    9 1    
    17    8   79 1    
    18    8   80 1    
    19    9   10 ar   
    20    9   14 ar   
    21   10   11 ar   
    22   10   81 1    
    23   11   12 ar   
    24   11   71 1    
    25   12   13 ar   
    26   12   82 1    
    27   13   14 ar   
    28   13   15 1    
    29   14   83 1    
    30   15   16 1    
    31   15   84 1    
    32   15   85 1    
    33   16   17 1    
    34   17   18 1    
    35   17   86 1    
    36   17   87 1    
    37   18   19 1    
    38   18   37 1    
    39   18   88 1    
    40   19   20 am   BACKBONE|DICT|INTERRES
    41   19   89 1    
    42   20   21 2    
    43   20   22 1    
    44   22   23 1    
    45   22   24 1    
    46   22   90 1    
    47   23   91 1    
    48   23   92 1    
    49   23   93 1    
    50   24   25 am   BACKBONE|DICT|INTERRES
    51   24   94 1    
    52   25   26 2    
    53   25   27 1    
    54   27   28 1    
    55   27   29 1    
    56   27   95 1    
    57   28   96 1    
    58   28   97 1    
    59   28   98 1    
    60   29   30 am   BACKBONE|DICT|INTERRES
    61   29   99 1    
    62   30   31 2    
    63   30   32 1    
    64   32   33 1    
    65   32   34 1    
    66   32  100 1    
    67   33  101 1    
    68   33  102 1    
    69   33  103 1    
    70   34   35 am   BACKBONE|DICT|INTERRES
    71   34  104 1    
    72   35   36 2    
    73   37   38 2    
    74   37   39 am   BACKBONE|DICT|INTERRES
    75   39   40 1    
    76   39  105 1    
    77   40   41 1    
    78   40   42 1    
    79   40  106 1    
    80   41  107 1    
    81   41  108 1    
    82   41  109 1    
    83   42   43 2    
    84   42   44 am   BACKBONE|DICT|INTERRES
    85   44   45 1    
    86   44  110 1    
    87   45   46 1    
    88   45   47 1    
    89   45  111 1    
    90   46  112 1    
    91   46  113 1    
    92   46  114 1    
    93   47   48 2    
    94   47   49 am   BACKBONE|DICT|INTERRES
    95   49   50 1    
    96   49  115 1    
    97   50   51 1    
    98   50   52 1    
    99   50  116 1    
   100   51  117 1    
   101   51  118 1    
   102   51  119 1    
   103   52   53 2    
   104   52   54 am   BACKBONE|DICT|INTERRES
   105   54   55 1    
   106   54  120 1    
   107   55   56 1    
   108   55   57 1    
   109   55  121 1    
   110   56  122 1    
   111   56  123 1    
   112   56  124 1    
   113   57   58 2    
   114   57   59 am   BACKBONE|DICT|INTERRES
   115   59   60 1    
   116   59  125 1    
   117   60   61 1    
   118   60   62 1    
   119   60  126 1    
   120   61  127 1    
   121   61  128 1    
   122   61  129 1    
   123   62   63 2    
   124   62   64 am   BACKBONE|DICT|INTERRES
   125   64   65 1    
   126   64  130 1    
   127   65   66 1    
   128   65   69 1    
   129   65  131 1    
   130   66   67 am   BACKBONE|DICT|INTERRES
   131   66   68 2    
   132   67  132 1    
   133   67  133 1    
   134   69   70 1    
   135   69  134 1    
   136   69  135 1    
   137   70   71 1    
   138   71  136 1    
   139   71  137 1    
@<TRIPOS>SUBSTRUCTURE
     1 UNK         1 GROUP             0       ****    0 ROOT    
