@<TRIPOS>MOLECULE
3R137
137   139    1
SMALL
USER_CHARGES


@<TRIPOS>ATOM
      1 CA         28.2027   -8.7429   -0.1161 C.3       0 UNK        -0.2020 
      2 C          27.5235   -7.3958    0.0784 C.2       0 UNK         0.4855 
      3 O          26.5343   -7.3075    0.8059 O.2       0 UNK        -0.5197 
      4 N          28.0440   -6.3449   -0.5686 N.am      1 UNK        -0.4892 
      5 CA         27.5147   -4.9747   -0.5158 C.3       1 UNK         0.0835 
      6 C6         28.6042   -3.9278   -0.8566 C.3       12 UNK        -0.0855 
      7 S7         29.4147   -4.1957   -2.4728 S.3       12 UNK        -0.2931 
      8 C8         28.8476   -2.7469   -3.4136 C.3       12 UNK         0.0378 
      9 C9         29.6243   -1.4882   -3.0540 C.ar      12 UNK        -0.0802 
     10 C10        30.8550   -1.2321   -3.6640 C.ar      12 UNK        -0.0944 
     11 C11        31.5470   -0.0470   -3.4028 C.ar      12 UNK        -0.0787 
     12 C12        31.0238    0.8681   -2.4850 C.ar      12 UNK        -0.0862 
     13 C13        29.8086    0.6092   -1.8429 C.ar      12 UNK        -0.0733 
     14 C14        29.1057   -0.5629   -2.1432 C.ar      12 UNK        -0.0832 
     15 C15        29.2627    1.5843   -0.8100 C.3       12 UNK         0.0240 
     16 S16        27.7085    2.3611   -1.3467 S.3       12 UNK        -0.2522 
     17 C17        28.2702    3.4612   -2.6931 C.3       12 UNK        -0.0967 
     18 CA         27.9936    2.9036   -4.1181 C.3       5 UNK         0.0660 
     19 N          26.6120    2.4172   -4.2447 N.am      5 UNK        -0.4015 
     20 C          26.1379    1.5689   -5.1644 C.2       4 UNK         0.4946 
     21 O          26.7772    1.1773   -6.1451 O.2       4 UNK        -0.5353 
     22 CA         24.6856    1.1062   -4.9776 C.3       4 UNK         0.0277 
     23 CB         23.7316    1.9569   -5.8323 C.3       4 UNK        -0.1981 
     24 N          24.5474   -0.3052   -5.3402 N.am      4 UNK        -0.4209 
     25 C          25.0201   -1.3152   -4.5988 C.2       3 UNK         0.4942 
     26 O          25.5237   -1.1748   -3.4813 O.2       3 UNK        -0.5208 
     27 CA         24.9239   -2.7141   -5.2157 C.3       3 UNK         0.0250 
     28 CB         26.0465   -2.9442   -6.2470 C.3       3 UNK        -0.1990 
     29 N          24.9869   -3.7089   -4.1457 N.am      3 UNK        -0.4232 
     30 C          24.6029   -4.9853   -4.2464 C.2       2 UNK         0.4993 
     31 O          24.2187   -5.4925   -5.3024 O.2       2 UNK        -0.5286 
     32 CA         24.6343   -5.8340   -2.9589 C.3       2 UNK         0.0209 
     33 CB         24.3381   -7.3233   -3.2235 C.3       2 UNK        -0.1931 
     34 N          25.9001   -5.7383   -2.2262 N.am      2 UNK        -0.4546 
     35 C          26.2231   -4.7810   -1.3457 C.2       1 UNK         0.5154 
     36 O          25.5285   -3.7813   -1.1595 O.2       1 UNK        -0.5181 
     37 C          28.3673    3.9302   -5.2171 C.2       5 UNK         0.5014 
     38 O          28.8432    5.0253   -4.9089 O.2       5 UNK        -0.5248 
     39 N          28.1182    3.5739   -6.4783 N.am      6 UNK        -0.4434 
     40 CA         28.3352    4.3746   -7.6769 C.3       6 UNK         0.0363 
     41 CB         27.1634    5.3623   -7.8698 C.3       6 UNK        -0.1936 
     42 C          28.5460    3.4180   -8.8604 C.2       6 UNK         0.5081 
     43 O          29.0717    2.3207   -8.6655 O.2       6 UNK        -0.5248 
     44 N          28.1211    3.8238  -10.0648 N.am      7 UNK        -0.4718 
     45 CA         28.2880    3.0960  -11.3311 C.3       7 UNK         0.0273 
     46 CB         27.7281    3.9546  -12.4770 C.3       7 UNK        -0.1935 
     47 C          27.6759    1.6814  -11.3741 C.2       7 UNK         0.5018 
     48 O          28.1064    0.8747  -12.1984 O.2       7 UNK        -0.5186 
     49 N          26.7062    1.3978  -10.4914 N.am      8 UNK        -0.4240 
     50 CA         26.1303    0.0659  -10.2855 C.3       8 UNK         0.0235 
     51 CB         24.9144    0.1674   -9.3507 C.3       8 UNK        -0.2000 
     52 C          27.1563   -0.9346   -9.7252 C.2       8 UNK         0.4941 
     53 O          27.2197   -2.0675  -10.2037 O.2       8 UNK        -0.5273 
     54 N          27.9435   -0.4917   -8.7359 N.am      9 UNK        -0.4262 
     55 CA         29.0550   -1.2486   -8.1636 C.3       9 UNK         0.0264 
     56 CB         29.2847   -0.7954   -6.7165 C.3       9 UNK        -0.1955 
     57 C          30.3495   -1.0711   -8.9702 C.2       9 UNK         0.5031 
     58 O          31.1489   -2.0060   -9.0367 O.2       9 UNK        -0.5390 
     59 N          30.5573    0.1336   -9.5224 N.am      10 UNK        -0.4204 
     60 CA         31.7178    0.6284  -10.2772 C.3       10 UNK         0.0237 
     61 CB         31.9902   -0.2178  -11.5356 C.3       10 UNK        -0.1985 
     62 C          32.9897    0.8122   -9.4283 C.2       10 UNK         0.4970 
     63 O          33.6856    1.8115   -9.6105 O.2       10 UNK        -0.4914 
     64 N          33.2532   -0.1274   -8.5121 N.am      11 UNK        -0.4285 
     65 CA         34.3237   -0.1067   -7.4993 C.3       11 UNK         0.1007 
     66 C          35.7699   -0.2256   -8.0704 C.2       11 UNK         0.5703 
     67 N          35.9563   -0.6472   -9.3157 N.am      11 UNK        -0.7361 
     68 O          36.7439    0.0328   -7.3665 O.2       11 UNK        -0.4986 
     69 C69        34.1724    1.0591   -6.4757 C.3       12 UNK        -0.0947 
     70 S70        32.5234    1.1118   -5.6943 S.3       12 UNK        -0.2240 
     71 C71        32.8491    0.2461   -4.1296 C.3       12 UNK         0.0194 
     72 H72        29.0638   -8.6740   -0.7807 H         1 UNK         0.0906 
     73 H73        28.5452   -9.1320    0.8424 H         1 UNK         0.0906 
     74 H74        27.5009   -9.4588   -0.5433 H         1 UNK         0.0906 
     75 H75        28.8598   -6.4647   -1.1545 H         1 UNK         0.3140 
     76 H76        27.2160   -4.7857    0.5182 H         1 UNK         0.1085 
     77 H77        29.3836   -3.9613   -0.0938 H         1 UNK         0.0836 
     78 H78        28.1925   -2.9199   -0.7968 H         1 UNK         0.0836 
     79 H79        27.7777   -2.6016   -3.2613 H         1 UNK         0.0731 
     80 H80        28.9786   -2.9577   -4.4752 H         1 UNK         0.0731 
     81 H81        31.2631   -1.9462   -4.3659 H         1 UNK         0.1312 
     82 H82        31.5635    1.7811   -2.2735 H         1 UNK         0.1406 
     83 H83        28.1495   -0.7464   -1.6719 H         1 UNK         0.1631 
     84 H84        29.9930    2.3595   -0.5724 H         1 UNK         0.0717 
     85 H85        29.0796    1.0448    0.1203 H         1 UNK         0.0717 
     86 H86        27.7607    4.4169   -2.5544 H         1 UNK         0.0934 
     87 H87        29.3343    3.6708   -2.5685 H         1 UNK         0.0934 
     88 H88        28.6514    2.0437   -4.2659 H         1 UNK         0.0739 
     89 H89        25.9984    2.6967   -3.4936 H         1 UNK         0.3093 
     90 H90        24.4060    1.2197   -3.9276 H         1 UNK         0.0818 
     91 H91        23.7829    3.0075   -5.5433 H         1 UNK         0.0819 
     92 H92        23.9739    1.9031   -6.8935 H         1 UNK         0.0819 
     93 H93        22.6963    1.6391   -5.7077 H         1 UNK         0.0819 
     94 H94        24.1792   -0.5018   -6.2587 H         1 UNK         0.3041 
     95 H95        23.9545   -2.7976   -5.7118 H         1 UNK         0.0784 
     96 H96        26.0597   -2.1570   -7.0017 H         1 UNK         0.0793 
     97 H97        27.0273   -2.9590   -5.7754 H         1 UNK         0.0793 
     98 H98        25.9181   -3.8895   -6.7740 H         1 UNK         0.0793 
     99 H99        25.2563   -3.3401   -3.2369 H         1 UNK         0.3024 
    100 H100       23.8338   -5.4517   -2.3210 H         1 UNK         0.1171 
    101 H101       25.0867   -7.7736   -3.8765 H         1 UNK         0.0786 
    102 H102       24.3147   -7.8943   -2.2950 H         1 UNK         0.0786 
    103 H103       23.3663   -7.4521   -3.7023 H         1 UNK         0.0786 
    104 H104       26.5505   -6.5014   -2.3441 H         1 UNK         0.2977 
    105 H105       27.7582    2.6321   -6.6344 H         1 UNK         0.3127 
    106 H106       29.2619    4.9398   -7.5599 H         1 UNK         0.0770 
    107 H107       26.2244    4.8419   -8.0634 H         1 UNK         0.0814 
    108 H108       27.3466    6.0466   -8.6988 H         1 UNK         0.0814 
    109 H109       27.0192    5.9808   -6.9838 H         1 UNK         0.0814 
    110 H110       27.6842    4.7322  -10.1291 H         1 UNK         0.2983 
    111 H111       29.3614    2.9744  -11.4915 H         1 UNK         0.0947 
    112 H112       27.8633    3.4593  -13.4398 H         1 UNK         0.0806 
    113 H113       28.2360    4.9172  -12.5386 H         1 UNK         0.0806 
    114 H114       26.6607    4.1432  -12.3553 H         1 UNK         0.0806 
    115 H115       26.4096    2.1304   -9.8641 H         1 UNK         0.3000 
    116 H116       25.7909   -0.3075  -11.2542 H         1 UNK         0.0850 
    117 H117       25.1999    0.5292   -8.3631 H         1 UNK         0.0810 
    118 H118       24.4445   -0.8081   -9.2173 H         1 UNK         0.0810 
    119 H119       24.1563    0.8401   -9.7522 H         1 UNK         0.0810 
    120 H120       27.8263    0.4566   -8.4001 H         1 UNK         0.3040 
    121 H121       28.8041   -2.3116   -8.1532 H         1 UNK         0.0766 
    122 H122       29.5168    0.2687   -6.6522 H         1 UNK         0.0812 
    123 H123       28.4126   -0.9823   -6.0911 H         1 UNK         0.0812 
    124 H124       30.1233   -1.3376   -6.2838 H         1 UNK         0.0812 
    125 H125       29.8827    0.8614   -9.2840 H         1 UNK         0.3205 
    126 H126       31.4294    1.6253  -10.6143 H         1 UNK         0.0754 
    127 H127       32.7780    0.2314  -12.1417 H         1 UNK         0.0769 
    128 H128       31.1001   -0.2894  -12.1612 H         1 UNK         0.0769 
    129 H129       32.3097   -1.2306  -11.2893 H         1 UNK         0.0769 
    130 H130       32.6327   -0.9314   -8.4890 H         1 UNK         0.2981 
    131 H131       34.1877   -1.0317   -6.9385 H         1 UNK         0.0541 
    132 H132       36.8945   -0.7328   -9.6736 H         1 UNK         0.3459 
    133 H133       35.1679   -0.8728   -9.9004 H         1 UNK         0.3459 
    134 H134       34.3452    2.0189   -6.9645 H         1 UNK         0.0612 
    135 H135       34.9257    0.9844   -5.6896 H         1 UNK         0.0612 
    136 H136       33.3814   -0.6847   -4.3319 H         1 UNK         0.0624 
    137 H137       33.5065    0.8543   -3.5065 H         1 UNK         0.0624 
@<TRIPOS>BOND
     1    1    2 1    
     2    1   72 1    
     3    1   73 1    
     4    1   74 1    
     5    2    3 2    
     6    2    4 am   BACKBONE|DICT|INTERRES
     7    4    5 1    
     8    4   75 1    
     9    5    6 1    
    10    5   35 1    
    11    5   76 1    
    12    6    7 1    
    13    6   77 1    
    14    6   78 1    
    15    7    8 1    
    16    8    9 1    
    17    8   79 1    
    18    8   80 1    
    19    9   10 ar   
    20    9   14 ar   
    21   10   11 ar   
    22   10   81 1    
    23   11   12 ar   
    24   11   71 1    
    25   12   13 ar   
    26   12   82 1    
    27   13   14 ar   
    28   13   15 1    
    29   14   83 1    
    30   15   16 1    
    31   15   84 1    
    32   15   85 1    
    33   16   17 1    
    34   17   18 1    
    35   17   86 1    
    36   17   87 1    
    37   18   19 1    
    38   18   37 1    
    39   18   88 1    
    40   19   20 am   BACKBONE|DICT|INTERRES
    41   19   89 1    
    42   20   21 2    
    43   20   22 1    
    44   22   23 1    
    45   22   24 1    
    46   22   90 1    
    47   23   91 1    
    48   23   92 1    
    49   23   93 1    
    50   24   25 am   BACKBONE|DICT|INTERRES
    51   24   94 1    
    52   25   26 2    
    53   25   27 1    
    54   27   28 1    
    55   27   29 1    
    56   27   95 1    
    57   28   96 1    
    58   28   97 1    
    59   28   98 1    
    60   29   30 am   BACKBONE|DICT|INTERRES
    61   29   99 1    
    62   30   31 2    
    63   30   32 1    
    64   32   33 1    
    65   32   34 1    
    66   32  100 1    
    67   33  101 1    
    68   33  102 1    
    69   33  103 1    
    70   34   35 am   BACKBONE|DICT|INTERRES
    71   34  104 1    
    72   35   36 2    
    73   37   38 2    
    74   37   39 am   BACKBONE|DICT|INTERRES
    75   39   40 1    
    76   39  105 1    
    77   40   41 1    
    78   40   42 1    
    79   40  106 1    
    80   41  107 1    
    81   41  108 1    
    82   41  109 1    
    83   42   43 2    
    84   42   44 am   BACKBONE|DICT|INTERRES
    85   44   45 1    
    86   44  110 1    
    87   45   46 1    
    88   45   47 1    
    89   45  111 1    
    90   46  112 1    
    91   46  113 1    
    92   46  114 1    
    93   47   48 2    
    94   47   49 am   BACKBONE|DICT|INTERRES
    95   49   50 1    
    96   49  115 1    
    97   50   51 1    
    98   50   52 1    
    99   50  116 1    
   100   51  117 1    
   101   51  118 1    
   102   51  119 1    
   103   52   53 2    
   104   52   54 am   BACKBONE|DICT|INTERRES
   105   54   55 1    
   106   54  120 1    
   107   55   56 1    
   108   55   57 1    
   109   55  121 1    
   110   56  122 1    
   111   56  123 1    
   112   56  124 1    
   113   57   58 2    
   114   57   59 am   BACKBONE|DICT|INTERRES
   115   59   60 1    
   116   59  125 1    
   117   60   61 1    
   118   60   62 1    
   119   60  126 1    
   120   61  127 1    
   121   61  128 1    
   122   61  129 1    
   123   62   63 2    
   124   62   64 am   BACKBONE|DICT|INTERRES
   125   64   65 1    
   126   64  130 1    
   127   65   66 1    
   128   65   69 1    
   129   65  131 1    
   130   66   67 am   BACKBONE|DICT|INTERRES
   131   66   68 2    
   132   67  132 1    
   133   67  133 1    
   134   69   70 1    
   135   69  134 1    
   136   69  135 1    
   137   70   71 1    
   138   71  136 1    
   139   71  137 1    
@<TRIPOS>SUBSTRUCTURE
     1 UNK         1 GROUP             0       ****    0 ROOT    
