@<TRIPOS>MOLECULE
3R137
137   139    1
SMALL
USER_CHARGES


@<TRIPOS>ATOM
      1 CA         29.6054    0.2749    0.6230 C.3       0 UNK        -0.2020 
      2 C          29.3462   -0.7920   -0.4296 C.2       0 UNK         0.4855 
      3 O          29.5650   -0.5443   -1.6126 O.2       0 UNK        -0.5197 
      4 N          28.8823   -1.9751   -0.0062 N.am      1 UNK        -0.4892 
      5 CA         28.5666   -3.1147   -0.8812 C.3       1 UNK         0.0835 
      6 C6         28.9010   -4.4485   -0.1601 C.3       12 UNK        -0.0855 
      7 S7         29.2087   -5.8769   -1.2566 S.3       12 UNK        -0.2931 
      8 C8         30.8725   -5.5349   -1.9309 C.3       12 UNK         0.0378 
      9 C9         30.8092   -4.6269   -3.1526 C.ar      12 UNK        -0.0802 
     10 C10        31.4261   -3.3694   -3.1450 C.ar      12 UNK        -0.0944 
     11 C11        31.3055   -2.5090   -4.2423 C.ar      12 UNK        -0.0787 
     12 C12        30.5503   -2.9239   -5.3454 C.ar      12 UNK        -0.0862 
     13 C13        29.9762   -4.1957   -5.3914 C.ar      12 UNK        -0.0733 
     14 C14        30.1135   -5.0448   -4.2918 C.ar      12 UNK        -0.0832 
     15 C15        29.2340   -4.6523   -6.6418 C.3       12 UNK         0.0240 
     16 S16        27.4874   -5.0802   -6.3443 S.3       12 UNK        -0.2522 
     17 C17        26.8136   -3.5564   -5.6058 C.3       12 UNK        -0.0967 
     18 CA         26.4428   -2.4749   -6.6558 C.3       5 UNK         0.0660 
     19 N          25.1759   -1.8162   -6.3360 N.am      5 UNK        -0.4015 
     20 C          24.4377   -1.1216   -7.2126 C.2       4 UNK         0.4946 
     21 O          24.7108   -1.0131   -8.4077 O.2       4 UNK        -0.5353 
     22 CA         23.1938   -0.4055   -6.6587 C.3       4 UNK         0.0277 
     23 CB         21.9776   -1.3455   -6.6728 C.3       4 UNK        -0.1981 
     24 N          23.3878    0.1260   -5.3067 N.am      4 UNK        -0.4209 
     25 C          24.2495    1.1055   -4.9992 C.2       3 UNK         0.4942 
     26 O          24.9615    1.6769   -5.8238 O.2       3 UNK        -0.5208 
     27 CA         24.3657    1.4906   -3.5161 C.3       3 UNK         0.0250 
     28 CB         23.2836    2.5166   -3.1433 C.3       3 UNK        -0.1990 
     29 N          24.3167    0.3621   -2.5782 N.am      3 UNK        -0.4232 
     30 C          25.1266   -0.7070   -2.5931 C.2       2 UNK         0.4993 
     31 O          25.9272   -0.9487   -3.5005 O.2       2 UNK        -0.5286 
     32 CA         24.9971   -1.6581   -1.3906 C.3       2 UNK         0.0209 
     33 CB         24.0169   -2.8122   -1.6844 C.3       2 UNK        -0.1931 
     34 N          26.3124   -2.1196   -0.9219 N.am      2 UNK        -0.4546 
     35 C          27.1263   -3.0510   -1.4464 C.2       1 UNK         0.5154 
     36 O          26.7957   -3.8271   -2.3416 O.2       1 UNK        -0.5181 
     37 C          27.5565   -1.4230   -6.7964 C.2       5 UNK         0.5014 
     38 O          28.2893   -1.4312   -7.7875 O.2       5 UNK        -0.5248 
     39 N          27.6365   -0.5225   -5.8057 N.am      6 UNK        -0.4434 
     40 CA         28.6074    0.5668   -5.7149 C.3       6 UNK         0.0363 
     41 CB         28.3507    1.3549   -4.4224 C.3       6 UNK        -0.1936 
     42 C          28.5896    1.4985   -6.9356 C.2       6 UNK         0.5081 
     43 O          29.6510    1.7916   -7.4850 O.2       6 UNK        -0.5248 
     44 N          27.3890    1.9119   -7.3645 N.am      7 UNK        -0.4718 
     45 CA         27.1795    2.7499   -8.5465 C.3       7 UNK         0.0273 
     46 CB         25.7240    3.2422   -8.5744 C.3       7 UNK        -0.1935 
     47 C          27.5306    2.0429   -9.8659 C.2       7 UNK         0.5018 
     48 O          28.0385    2.6977  -10.7765 O.2       7 UNK        -0.5186 
     49 N          27.2599    0.7323   -9.9498 N.am      8 UNK        -0.4240 
     50 CA         27.5478   -0.0913  -11.1255 C.3       8 UNK         0.0235 
     51 CB         26.7619   -1.4104  -11.0461 C.3       8 UNK        -0.2000 
     52 C          29.0499   -0.3598  -11.2997 C.2       8 UNK         0.4941 
     53 O          29.5643   -0.2179  -12.4097 O.2       8 UNK        -0.5273 
     54 N          29.7240   -0.7413  -10.2068 N.am      9 UNK        -0.4262 
     55 CA         31.1537   -1.0650  -10.1961 C.3       9 UNK         0.0264 
     56 CB         31.4252   -2.0458   -9.0498 C.3       9 UNK        -0.1955 
     57 C          32.0730    0.1662  -10.0845 C.2       9 UNK         0.5031 
     58 O          33.2736    0.0240  -10.3211 O.2       9 UNK        -0.5390 
     59 N          31.5088    1.3312   -9.7318 N.am      10 UNK        -0.4204 
     60 CA         32.1753    2.6155   -9.4855 C.3       10 UNK         0.0237 
     61 CB         32.9011    3.1356  -10.7458 C.3       10 UNK        -0.1985 
     62 C          33.0716    2.5592   -8.2341 C.2       10 UNK         0.4970 
     63 O          34.2764    2.8092   -8.3125 O.2       10 UNK        -0.4914 
     64 N          32.4460    2.2356   -7.1003 N.am      11 UNK        -0.4285 
     65 CA         33.0473    2.1735   -5.7617 C.3       11 UNK         0.1007 
     66 C          32.0672    2.7113   -4.6825 C.2       11 UNK         0.5703 
     67 N          32.2521    2.3711   -3.4138 N.am      11 UNK        -0.7361 
     68 O          31.1647    3.4928   -4.9759 O.2       11 UNK        -0.4986 
     69 C69        33.7103    0.7966   -5.4514 C.3       12 UNK        -0.0947 
     70 S70        32.6845   -0.6624   -5.8338 S.3       12 UNK        -0.2240 
     71 C71        31.9790   -1.1350   -4.2163 C.3       12 UNK         0.0194 
     72 H72        29.3730   -0.0756    1.6284 H         1 UNK         0.0906 
     73 H73        30.6531    0.5737    0.6017 H         1 UNK         0.0906 
     74 H74        28.9966    1.1558    0.4208 H         1 UNK         0.0906 
     75 H75        28.7334   -2.1249    0.9827 H         1 UNK         0.3140 
     76 H76        29.2043   -3.0366   -1.7586 H         1 UNK         0.1085 
     77 H77        29.7960   -4.3269    0.4526 H         1 UNK         0.0836 
     78 H78        28.1055   -4.7137    0.5388 H         1 UNK         0.0836 
     79 H79        31.5082   -5.1107   -1.1523 H         1 UNK         0.0731 
     80 H80        31.3335   -6.4798   -2.2220 H         1 UNK         0.0731 
     81 H81        31.9785   -3.0480   -2.2725 H         1 UNK         0.1312 
     82 H82        30.4202   -2.2579   -6.1829 H         1 UNK         0.1406 
     83 H83        29.6503   -6.0223   -4.3104 H         1 UNK         0.1631 
     84 H84        29.7408   -5.5290   -7.0472 H         1 UNK         0.0717 
     85 H85        29.2806   -3.8931   -7.4228 H         1 UNK         0.0717 
     86 H86        25.9231   -3.8672   -5.0566 H         1 UNK         0.0934 
     87 H87        27.4894   -3.1812   -4.8342 H         1 UNK         0.0934 
     88 H88        26.3187   -2.9544   -7.6295 H         1 UNK         0.0739 
     89 H89        24.9256   -1.7826   -5.3568 H         1 UNK         0.3093 
     90 H90        22.9815    0.4375   -7.3202 H         1 UNK         0.0818 
     91 H91        21.0697   -0.8248   -6.3679 H         1 UNK         0.0819 
     92 H92        21.8016   -1.7386   -7.6753 H         1 UNK         0.0819 
     93 H93        22.1160   -2.1991   -6.0081 H         1 UNK         0.0819 
     94 H94        22.8410   -0.2850   -4.5640 H         1 UNK         0.3041 
     95 H95        25.3369    1.9695   -3.3829 H         1 UNK         0.0784 
     96 H96        23.3117    3.3753   -3.8160 H         1 UNK         0.0793 
     97 H97        22.2817    2.0894   -3.2024 H         1 UNK         0.0793 
     98 H98        23.4279    2.8975   -2.1320 H         1 UNK         0.0793 
     99 H99        23.6695    0.4613   -1.8090 H         1 UNK         0.3024 
    100 H100       24.5859   -1.0874   -0.5560 H         1 UNK         0.1171 
    101 H101       23.0046   -2.4330   -1.8291 H         1 UNK         0.0786 
    102 H102       23.9816   -3.5246   -0.8602 H         1 UNK         0.0786 
    103 H103       24.2839   -3.3576   -2.5901 H         1 UNK         0.0786 
    104 H104       26.7253   -1.5437   -0.2020 H         1 UNK         0.2977 
    105 H105       26.9983   -0.6186   -5.0177 H         1 UNK         0.3127 
    106 H106       29.5982    0.1145   -5.6550 H         1 UNK         0.0770 
    107 H107       27.4006    1.8860   -4.4572 H         1 UNK         0.0814 
    108 H108       29.1275    2.0971   -4.2511 H         1 UNK         0.0814 
    109 H109       28.3342    0.6985   -3.5533 H         1 UNK         0.0814 
    110 H110       26.5595    1.6602   -6.8298 H         1 UNK         0.2983 
    111 H111       27.8332    3.6204   -8.4576 H         1 UNK         0.0947 
    112 H112       25.5431    3.8839   -9.4379 H         1 UNK         0.0806 
    113 H113       25.4856    3.8228   -7.6831 H         1 UNK         0.0806 
    114 H114       25.0192    2.4112   -8.6290 H         1 UNK         0.0806 
    115 H115       26.8514    0.2656   -9.1506 H         1 UNK         0.3000 
    116 H116       27.2043    0.4494  -12.0102 H         1 UNK         0.0850 
    117 H117       26.9647   -2.0395  -11.9138 H         1 UNK         0.0810 
    118 H118       25.6874   -1.2284  -11.0227 H         1 UNK         0.0810 
    119 H119       27.0206   -1.9863  -10.1569 H         1 UNK         0.0810 
    120 H120       29.2142   -0.8728   -9.3339 H         1 UNK         0.3040 
    121 H121       31.4065   -1.5693  -11.1314 H         1 UNK         0.0766 
    122 H122       32.4792   -2.3227   -9.0019 H         1 UNK         0.0812 
    123 H123       30.8489   -2.9638   -9.1632 H         1 UNK         0.0812 
    124 H124       31.1604   -1.5946   -8.0974 H         1 UNK         0.0812 
    125 H125       30.5287    1.3082   -9.4774 H         1 UNK         0.3205 
    126 H126       31.3789    3.3264   -9.2588 H         1 UNK         0.0754 
    127 H127       33.2842    4.1436  -10.5827 H         1 UNK         0.0769 
    128 H128       32.2263    3.1791  -11.6008 H         1 UNK         0.0769 
    129 H129       33.7504    2.5095  -11.0199 H         1 UNK         0.0769 
    130 H130       31.4390    2.0813   -7.1282 H         1 UNK         0.2981 
    131 H131       33.8501    2.9126   -5.7416 H         1 UNK         0.0541 
    132 H132       33.0044    1.7605   -3.1406 H         1 UNK         0.3459 
    133 H133       31.6278    2.7411   -2.7152 H         1 UNK         0.3459 
    134 H134       34.0747    0.7378   -4.4256 H         1 UNK         0.0612 
    135 H135       34.6054    0.7049   -6.0682 H         1 UNK         0.0612 
    136 H136       32.7766   -1.1258   -3.4723 H         1 UNK         0.0624 
    137 H137       31.2490   -0.3865   -3.9064 H         1 UNK         0.0624 
@<TRIPOS>BOND
     1    1    2 1    
     2    1   72 1    
     3    1   73 1    
     4    1   74 1    
     5    2    3 2    
     6    2    4 am   BACKBONE|DICT|INTERRES
     7    4    5 1    
     8    4   75 1    
     9    5    6 1    
    10    5   35 1    
    11    5   76 1    
    12    6    7 1    
    13    6   77 1    
    14    6   78 1    
    15    7    8 1    
    16    8    9 1    
    17    8   79 1    
    18    8   80 1    
    19    9   10 ar   
    20    9   14 ar   
    21   10   11 ar   
    22   10   81 1    
    23   11   12 ar   
    24   11   71 1    
    25   12   13 ar   
    26   12   82 1    
    27   13   14 ar   
    28   13   15 1    
    29   14   83 1    
    30   15   16 1    
    31   15   84 1    
    32   15   85 1    
    33   16   17 1    
    34   17   18 1    
    35   17   86 1    
    36   17   87 1    
    37   18   19 1    
    38   18   37 1    
    39   18   88 1    
    40   19   20 am   BACKBONE|DICT|INTERRES
    41   19   89 1    
    42   20   21 2    
    43   20   22 1    
    44   22   23 1    
    45   22   24 1    
    46   22   90 1    
    47   23   91 1    
    48   23   92 1    
    49   23   93 1    
    50   24   25 am   BACKBONE|DICT|INTERRES
    51   24   94 1    
    52   25   26 2    
    53   25   27 1    
    54   27   28 1    
    55   27   29 1    
    56   27   95 1    
    57   28   96 1    
    58   28   97 1    
    59   28   98 1    
    60   29   30 am   BACKBONE|DICT|INTERRES
    61   29   99 1    
    62   30   31 2    
    63   30   32 1    
    64   32   33 1    
    65   32   34 1    
    66   32  100 1    
    67   33  101 1    
    68   33  102 1    
    69   33  103 1    
    70   34   35 am   BACKBONE|DICT|INTERRES
    71   34  104 1    
    72   35   36 2    
    73   37   38 2    
    74   37   39 am   BACKBONE|DICT|INTERRES
    75   39   40 1    
    76   39  105 1    
    77   40   41 1    
    78   40   42 1    
    79   40  106 1    
    80   41  107 1    
    81   41  108 1    
    82   41  109 1    
    83   42   43 2    
    84   42   44 am   BACKBONE|DICT|INTERRES
    85   44   45 1    
    86   44  110 1    
    87   45   46 1    
    88   45   47 1    
    89   45  111 1    
    90   46  112 1    
    91   46  113 1    
    92   46  114 1    
    93   47   48 2    
    94   47   49 am   BACKBONE|DICT|INTERRES
    95   49   50 1    
    96   49  115 1    
    97   50   51 1    
    98   50   52 1    
    99   50  116 1    
   100   51  117 1    
   101   51  118 1    
   102   51  119 1    
   103   52   53 2    
   104   52   54 am   BACKBONE|DICT|INTERRES
   105   54   55 1    
   106   54  120 1    
   107   55   56 1    
   108   55   57 1    
   109   55  121 1    
   110   56  122 1    
   111   56  123 1    
   112   56  124 1    
   113   57   58 2    
   114   57   59 am   BACKBONE|DICT|INTERRES
   115   59   60 1    
   116   59  125 1    
   117   60   61 1    
   118   60   62 1    
   119   60  126 1    
   120   61  127 1    
   121   61  128 1    
   122   61  129 1    
   123   62   63 2    
   124   62   64 am   BACKBONE|DICT|INTERRES
   125   64   65 1    
   126   64  130 1    
   127   65   66 1    
   128   65   69 1    
   129   65  131 1    
   130   66   67 am   BACKBONE|DICT|INTERRES
   131   66   68 2    
   132   67  132 1    
   133   67  133 1    
   134   69   70 1    
   135   69  134 1    
   136   69  135 1    
   137   70   71 1    
   138   71  136 1    
   139   71  137 1    
@<TRIPOS>SUBSTRUCTURE
     1 UNK         1 GROUP             0       ****    0 ROOT    
