@<TRIPOS>MOLECULE
3R137
137   139    1
SMALL
USER_CHARGES


@<TRIPOS>ATOM
      1 CA         30.3975   -5.7639   -4.9639 C.3       0 UNK        -0.2020 
      2 C          29.1333   -5.9103   -4.1338 C.2       0 UNK         0.4855 
      3 O          28.5081   -6.9707   -4.1482 O.2       0 UNK        -0.5197 
      4 N          28.7517   -4.8523   -3.4139 N.am      1 UNK        -0.4892 
      5 CA         27.5479   -4.7728   -2.5918 C.3       1 UNK         0.0835 
      6 C6         27.6962   -5.5088   -1.2283 C.3       12 UNK        -0.0855 
      7 S7         28.6024   -4.6462    0.1047 S.3       12 UNK        -0.2931 
      8 C8         30.3239   -4.6167   -0.5114 C.3       12 UNK         0.0378 
      9 C9         30.7408   -3.3106   -1.1937 C.ar      12 UNK        -0.0802 
     10 C10        31.8036   -3.3265   -2.1053 C.ar      12 UNK        -0.0944 
     11 C11        32.2594   -2.1419   -2.6946 C.ar      12 UNK        -0.0787 
     12 C12        31.6471   -0.9314   -2.3630 C.ar      12 UNK        -0.0862 
     13 C13        30.5730   -0.8968   -1.4703 C.ar      12 UNK        -0.0733 
     14 C14        30.1315   -2.0860   -0.8859 C.ar      12 UNK        -0.0832 
     15 C15        29.9107    0.4243   -1.1006 C.3       12 UNK         0.0240 
     16 S16        28.4984    0.8158   -2.1825 S.3       12 UNK        -0.2522 
     17 C17        29.3612    1.4645   -3.6493 C.3       12 UNK        -0.0967 
     18 CA         28.5793    1.3635   -4.9761 C.3       5 UNK         0.0660 
     19 N          28.0711    0.0199   -5.2725 N.am      5 UNK        -0.4015 
     20 C          27.9361   -0.4494   -6.5217 C.2       4 UNK         0.4946 
     21 O          28.3038    0.1621   -7.5254 O.2       4 UNK        -0.5353 
     22 CA         27.2346   -1.8030   -6.6989 C.3       4 UNK         0.0277 
     23 CB         28.2150   -2.9703   -6.5093 C.3       4 UNK        -0.1981 
     24 N          26.0880   -1.9536   -5.8055 N.am      4 UNK        -0.4209 
     25 C          24.9208   -1.3149   -5.9737 C.2       3 UNK         0.4942 
     26 O          24.7112   -0.5120   -6.8823 O.2       3 UNK        -0.5208 
     27 CA         23.8033   -1.6034   -4.9552 C.3       3 UNK         0.0250 
     28 CB         22.9098   -2.7503   -5.4529 C.3       3 UNK        -0.1990 
     29 N          24.3096   -1.9257   -3.6202 N.am      3 UNK        -0.4232 
     30 C          24.9617   -1.0622   -2.8291 C.2       2 UNK         0.4993 
     31 O          25.1558    0.1171   -3.1205 O.2       2 UNK        -0.5286 
     32 CA         25.5497   -1.6371   -1.5287 C.3       2 UNK         0.0209 
     33 CB         24.4989   -1.6356   -0.4073 C.3       2 UNK        -0.1931 
     34 N          26.1001   -2.9901   -1.6908 N.am      2 UNK        -0.4546 
     35 C          27.1056   -3.2978   -2.5231 C.2       1 UNK         0.5154 
     36 O          27.6488   -2.4669   -3.2580 O.2       1 UNK        -0.5181 
     37 C          27.5157    2.4656   -5.1430 C.2       5 UNK         0.5014 
     38 O          27.8981    3.6091   -5.3938 O.2       5 UNK        -0.5248 
     39 N          26.2174    2.1266   -5.0817 N.am      6 UNK        -0.4434 
     40 CA         25.1316    3.0179   -5.5101 C.3       6 UNK         0.0363 
     41 CB         23.7692    2.4604   -5.0717 C.3       6 UNK        -0.1936 
     42 C          25.1601    3.2669   -7.0302 C.2       6 UNK         0.5081 
     43 O          24.9695    4.4048   -7.4596 O.2       6 UNK        -0.5248 
     44 N          25.4422    2.2132   -7.8128 N.am      7 UNK        -0.4718 
     45 CA         25.7156    2.2951   -9.2526 C.3       7 UNK         0.0273 
     46 CB         25.6472    0.8861   -9.8638 C.3       7 UNK        -0.1935 
     47 C          27.0718    2.9534   -9.5722 C.2       7 UNK         0.5018 
     48 O          27.2398    3.4862  -10.6695 O.2       7 UNK        -0.5186 
     49 N          28.0144    2.8855   -8.6212 N.am      8 UNK        -0.4240 
     50 CA         29.3640    3.4666   -8.5779 C.3       8 UNK         0.0235 
     51 CB         29.3228    4.9999   -8.7205 C.3       8 UNK        -0.2000 
     52 C          30.3698    2.8423   -9.5579 C.2       8 UNK         0.4941 
     53 O          31.5335    2.6721   -9.1958 O.2       8 UNK        -0.5273 
     54 N          29.9213    2.4984  -10.7698 N.am      9 UNK        -0.4262 
     55 CA         30.7280    1.8461  -11.8024 C.3       9 UNK         0.0264 
     56 CB         29.9895    1.9355  -13.1476 C.3       9 UNK        -0.1955 
     57 C          31.0700    0.3816  -11.4744 C.2       9 UNK         0.5031 
     58 O          32.0964   -0.1125  -11.9434 O.2       9 UNK        -0.5390 
     59 N          30.2033   -0.2913  -10.7045 N.am      10 UNK        -0.4204 
     60 CA         30.3281   -1.7121  -10.3772 C.3       10 UNK         0.0237 
     61 CB         28.9291   -2.3041  -10.1528 C.3       10 UNK        -0.1985 
     62 C          31.2605   -1.9946   -9.1859 C.2       10 UNK         0.4970 
     63 O          31.8565   -3.0718   -9.1550 O.2       10 UNK        -0.4914 
     64 N          31.3906   -1.0519   -8.2429 N.am      11 UNK        -0.4285 
     65 CA         32.3129   -1.1447   -7.1031 C.3       11 UNK         0.1007 
     66 C          32.6431    0.2666   -6.5639 C.2       11 UNK         0.5703 
     67 N          33.9118    0.5640   -6.3183 N.am      11 UNK        -0.7361 
     68 O          31.7532    1.0792   -6.3305 O.2       11 UNK        -0.4986 
     69 C69        31.7898   -2.0865   -5.9796 C.3       12 UNK        -0.0947 
     70 S70        33.1246   -3.0529   -5.1964 S.3       12 UNK        -0.2240 
     71 C71        33.4474   -2.1495   -3.6489 C.3       12 UNK         0.0194 
     72 H72        30.8892   -4.8125   -4.7721 H         1 UNK         0.0906 
     73 H73        31.1010   -6.5615   -4.7268 H         1 UNK         0.0906 
     74 H74        30.1611   -5.8176   -6.0263 H         1 UNK         0.0906 
     75 H75        29.2568   -3.9750   -3.4625 H         1 UNK         0.3140 
     76 H76        26.7527   -5.2756   -3.1471 H         1 UNK         0.1085 
     77 H77        28.1555   -6.4871   -1.3780 H         1 UNK         0.0836 
     78 H78        26.7022   -5.7303   -0.8367 H         1 UNK         0.0836 
     79 H79        30.4822   -5.4637   -1.1806 H         1 UNK         0.0731 
     80 H80        30.9883   -4.7739    0.3391 H         1 UNK         0.0731 
     81 H81        32.2946   -4.2602   -2.3442 H         1 UNK         0.1312 
     82 H82        32.0202   -0.0125   -2.7924 H         1 UNK         0.1406 
     83 H83        29.3164   -2.0437   -0.1776 H         1 UNK         0.1631 
     84 H84        30.6363    1.2385   -1.1336 H         1 UNK         0.0717 
     85 H85        29.5554    0.3809   -0.0700 H         1 UNK         0.0717 
     86 H86        29.6629    2.4952   -3.4521 H         1 UNK         0.0934 
     87 H87        30.2906    0.9165   -3.7825 H         1 UNK         0.0934 
     88 H88        29.3154    1.5974   -5.7467 H         1 UNK         0.0739 
     89 H89        27.7865   -0.5499   -4.4830 H         1 UNK         0.3093 
     90 H90        26.8523   -1.8499   -7.7201 H         1 UNK         0.0818 
     91 H91        28.7399   -2.9111   -5.5569 H         1 UNK         0.0819 
     92 H92        27.7073   -3.9336   -6.5571 H         1 UNK         0.0819 
     93 H93        28.9711   -2.9677   -7.2928 H         1 UNK         0.0819 
     94 H94        26.2227   -2.5287   -4.9856 H         1 UNK         0.3041 
     95 H95        23.1881   -0.7058   -4.8722 H         1 UNK         0.0784 
     96 H96        22.4979   -2.5232   -6.4374 H         1 UNK         0.0793 
     97 H97        23.4620   -3.6870   -5.5393 H         1 UNK         0.0793 
     98 H98        22.0665   -2.9168   -4.7823 H         1 UNK         0.0793 
     99 H99        24.1883   -2.8748   -3.2980 H         1 UNK         0.3024 
    100 H100       26.3701   -0.9824   -1.2282 H         1 UNK         0.1171 
    101 H101       24.9328   -1.9497    0.5422 H         1 UNK         0.0786 
    102 H102       24.0902   -0.6350   -0.2590 H         1 UNK         0.0786 
    103 H103       23.6633   -2.2996   -0.6320 H         1 UNK         0.0786 
    104 H104       25.7101   -3.7136   -1.1041 H         1 UNK         0.2977 
    105 H105       25.9563    1.2047   -4.7495 H         1 UNK         0.3127 
    106 H106       25.2737    3.9797   -5.0126 H         1 UNK         0.0770 
    107 H107       23.5380    1.5192   -5.5678 H         1 UNK         0.0814 
    108 H108       22.9688    3.1593   -5.3179 H         1 UNK         0.0814 
    109 H109       23.7337    2.2941   -3.9950 H         1 UNK         0.0814 
    110 H110       25.4827    1.2889   -7.3934 H         1 UNK         0.2983 
    111 H111       24.9383    2.9083   -9.7139 H         1 UNK         0.0947 
    112 H112       25.8163    0.9176  -10.9410 H         1 UNK         0.0806 
    113 H113       24.6691    0.4323   -9.7023 H         1 UNK         0.0806 
    114 H114       26.3965    0.2208   -9.4344 H         1 UNK         0.0806 
    115 H115       27.7873    2.3052   -7.8240 H         1 UNK         0.3000 
    116 H116       29.7401    3.2444   -7.5779 H         1 UNK         0.0850 
    117 H117       30.3161    5.4292   -8.5835 H         1 UNK         0.0810 
    118 H118       28.6699    5.4466   -7.9702 H         1 UNK         0.0810 
    119 H119       28.9683    5.3109   -9.7036 H         1 UNK         0.0810 
    120 H120       28.9571    2.7312  -10.9947 H         1 UNK         0.3040 
    121 H121       31.6701    2.3913  -11.8927 H         1 UNK         0.0766 
    122 H122       29.8098    2.9722  -13.4333 H         1 UNK         0.0812 
    123 H123       29.0262    1.4247  -13.1148 H         1 UNK         0.0812 
    124 H124       30.5751    1.4776  -13.9460 H         1 UNK         0.0812 
    125 H125       29.3975    0.1974  -10.3413 H         1 UNK         0.3205 
    126 H126       30.7591   -2.2290  -11.2379 H         1 UNK         0.0754 
    127 H127       28.9845   -3.3437   -9.8266 H         1 UNK         0.0769 
    128 H128       28.3430   -2.2853  -11.0718 H         1 UNK         0.0769 
    129 H129       28.3775   -1.7469   -9.3998 H         1 UNK         0.0769 
    130 H130       30.8751   -0.1840   -8.3120 H         1 UNK         0.2981 
    131 H131       33.2414   -1.5588   -7.5029 H         1 UNK         0.0541 
    132 H132       34.6484   -0.1014   -6.4923 H         1 UNK         0.3459 
    133 H133       34.1359    1.4785   -5.9595 H         1 UNK         0.3459 
    134 H134       31.1981   -1.5531   -5.2333 H         1 UNK         0.0612 
    135 H135       31.1160   -2.8313   -6.4003 H         1 UNK         0.0612 
    136 H136       33.7597   -1.1333   -3.8934 H         1 UNK         0.0624 
    137 H137       34.2968   -2.6150   -3.1474 H         1 UNK         0.0624 
@<TRIPOS>BOND
     1    1    2 1    
     2    1   72 1    
     3    1   73 1    
     4    1   74 1    
     5    2    3 2    
     6    2    4 am   BACKBONE|DICT|INTERRES
     7    4    5 1    
     8    4   75 1    
     9    5    6 1    
    10    5   35 1    
    11    5   76 1    
    12    6    7 1    
    13    6   77 1    
    14    6   78 1    
    15    7    8 1    
    16    8    9 1    
    17    8   79 1    
    18    8   80 1    
    19    9   10 ar   
    20    9   14 ar   
    21   10   11 ar   
    22   10   81 1    
    23   11   12 ar   
    24   11   71 1    
    25   12   13 ar   
    26   12   82 1    
    27   13   14 ar   
    28   13   15 1    
    29   14   83 1    
    30   15   16 1    
    31   15   84 1    
    32   15   85 1    
    33   16   17 1    
    34   17   18 1    
    35   17   86 1    
    36   17   87 1    
    37   18   19 1    
    38   18   37 1    
    39   18   88 1    
    40   19   20 am   BACKBONE|DICT|INTERRES
    41   19   89 1    
    42   20   21 2    
    43   20   22 1    
    44   22   23 1    
    45   22   24 1    
    46   22   90 1    
    47   23   91 1    
    48   23   92 1    
    49   23   93 1    
    50   24   25 am   BACKBONE|DICT|INTERRES
    51   24   94 1    
    52   25   26 2    
    53   25   27 1    
    54   27   28 1    
    55   27   29 1    
    56   27   95 1    
    57   28   96 1    
    58   28   97 1    
    59   28   98 1    
    60   29   30 am   BACKBONE|DICT|INTERRES
    61   29   99 1    
    62   30   31 2    
    63   30   32 1    
    64   32   33 1    
    65   32   34 1    
    66   32  100 1    
    67   33  101 1    
    68   33  102 1    
    69   33  103 1    
    70   34   35 am   BACKBONE|DICT|INTERRES
    71   34  104 1    
    72   35   36 2    
    73   37   38 2    
    74   37   39 am   BACKBONE|DICT|INTERRES
    75   39   40 1    
    76   39  105 1    
    77   40   41 1    
    78   40   42 1    
    79   40  106 1    
    80   41  107 1    
    81   41  108 1    
    82   41  109 1    
    83   42   43 2    
    84   42   44 am   BACKBONE|DICT|INTERRES
    85   44   45 1    
    86   44  110 1    
    87   45   46 1    
    88   45   47 1    
    89   45  111 1    
    90   46  112 1    
    91   46  113 1    
    92   46  114 1    
    93   47   48 2    
    94   47   49 am   BACKBONE|DICT|INTERRES
    95   49   50 1    
    96   49  115 1    
    97   50   51 1    
    98   50   52 1    
    99   50  116 1    
   100   51  117 1    
   101   51  118 1    
   102   51  119 1    
   103   52   53 2    
   104   52   54 am   BACKBONE|DICT|INTERRES
   105   54   55 1    
   106   54  120 1    
   107   55   56 1    
   108   55   57 1    
   109   55  121 1    
   110   56  122 1    
   111   56  123 1    
   112   56  124 1    
   113   57   58 2    
   114   57   59 am   BACKBONE|DICT|INTERRES
   115   59   60 1    
   116   59  125 1    
   117   60   61 1    
   118   60   62 1    
   119   60  126 1    
   120   61  127 1    
   121   61  128 1    
   122   61  129 1    
   123   62   63 2    
   124   62   64 am   BACKBONE|DICT|INTERRES
   125   64   65 1    
   126   64  130 1    
   127   65   66 1    
   128   65   69 1    
   129   65  131 1    
   130   66   67 am   BACKBONE|DICT|INTERRES
   131   66   68 2    
   132   67  132 1    
   133   67  133 1    
   134   69   70 1    
   135   69  134 1    
   136   69  135 1    
   137   70   71 1    
   138   71  136 1    
   139   71  137 1    
@<TRIPOS>SUBSTRUCTURE
     1 UNK         1 GROUP             0       ****    0 ROOT    
