@<TRIPOS>MOLECULE
3R137
137   139    1
SMALL
USER_CHARGES


@<TRIPOS>ATOM
      1 CA         30.9202    1.1410   -2.3223 C.3       0 UNK        -0.2020 
      2 C          30.0928   -0.0936   -2.6459 C.2       0 UNK         0.4855 
      3 O          29.6239   -0.2427   -3.7720 O.2       0 UNK        -0.5197 
      4 N          29.8672   -0.9587   -1.6500 N.am      1 UNK        -0.4892 
      5 CA         29.0863   -2.2010   -1.7660 C.3       1 UNK         0.0835 
      6 C6         29.5390   -3.2664   -0.7320 C.3       12 UNK        -0.0855 
      7 S7         31.3344   -3.6029   -0.7639 S.3       12 UNK        -0.2931 
      8 C8         31.4219   -5.1663   -1.6940 C.3       12 UNK         0.0378 
      9 C9         31.2834   -4.9479   -3.1941 C.ar      12 UNK        -0.0802 
     10 C10        32.3768   -4.4881   -3.9356 C.ar      12 UNK        -0.0944 
     11 C11        32.2777   -4.3128   -5.3193 C.ar      12 UNK        -0.0787 
     12 C12        31.0675   -4.6004   -5.9582 C.ar      12 UNK        -0.0862 
     13 C13        29.9599   -5.0382   -5.2274 C.ar      12 UNK        -0.0733 
     14 C14        30.0769   -5.2236   -3.8456 C.ar      12 UNK        -0.0832 
     15 C15        28.6410   -5.3036   -5.9424 C.3       12 UNK         0.0240 
     16 S16        27.2707   -4.2896   -5.2990 S.3       12 UNK        -0.2522 
     17 C17        27.8851   -2.5820   -5.5139 C.3       12 UNK        -0.0967 
     18 CA         27.2171   -1.8141   -6.6790 C.3       5 UNK         0.0660 
     19 N          25.7517   -1.8837   -6.6471 N.am      5 UNK        -0.4015 
     20 C          24.9584   -1.5204   -7.6647 C.2       4 UNK         0.4946 
     21 O          25.3832   -1.0992   -8.7381 O.2       4 UNK        -0.5353 
     22 CA         23.4372   -1.6078   -7.4613 C.3       4 UNK         0.0277 
     23 CB         22.9182   -2.9870   -7.8973 C.3       4 UNK        -0.1981 
     24 N          23.0037   -1.3344   -6.0915 N.am      4 UNK        -0.4209 
     25 C          23.1776   -0.1767   -5.4391 C.2       3 UNK         0.4942 
     26 O          23.7315    0.8083   -5.9304 O.2       3 UNK        -0.5208 
     27 CA         22.6716   -0.1127   -3.9822 C.3       3 UNK         0.0250 
     28 CB         21.8478   -1.3475   -3.5490 C.3       3 UNK        -0.1990 
     29 N          23.7381    0.1234   -2.9992 N.am      3 UNK        -0.4232 
     30 C          24.9249   -0.4977   -2.9119 C.2       2 UNK         0.4993 
     31 O          25.3542   -1.2793   -3.7629 O.2       2 UNK        -0.5286 
     32 CA         25.7636   -0.1543   -1.6645 C.3       2 UNK         0.0209 
     33 CB         25.0505   -0.5868   -0.3648 C.3       2 UNK        -0.1931 
     34 N          27.1350   -0.6832   -1.7071 N.am      2 UNK        -0.4546 
     35 C          27.5567   -1.9593   -1.6772 C.2       1 UNK         0.5154 
     36 O          26.8053   -2.9278   -1.5523 O.2       1 UNK        -0.5181 
     37 C          27.6900   -0.3482   -6.6833 C.2       5 UNK         0.5014 
     38 O          28.5858    0.0092   -7.4547 O.2       5 UNK        -0.5248 
     39 N          27.0430    0.4773   -5.8463 N.am      6 UNK        -0.4434 
     40 CA         27.2654    1.9202   -5.7569 C.3       6 UNK         0.0363 
     41 CB         26.5504    2.4898   -4.5230 C.3       6 UNK        -0.1936 
     42 C          26.8480    2.6597   -7.0365 C.2       6 UNK         0.5081 
     43 O          27.5472    3.5813   -7.4556 O.2       6 UNK        -0.5248 
     44 N          25.7380    2.2262   -7.6490 N.am      7 UNK        -0.4718 
     45 CA         25.2714    2.7191   -8.9454 C.3       7 UNK         0.0273 
     46 CB         23.8393    2.2230   -9.2005 C.3       7 UNK        -0.1935 
     47 C          26.2042    2.3192  -10.1028 C.2       7 UNK         0.5018 
     48 O          26.4730    3.1508  -10.9707 O.2       7 UNK        -0.5186 
     49 N          26.6692    1.0612  -10.1023 N.am      8 UNK        -0.4240 
     50 CA         27.5307    0.4960  -11.1408 C.3       8 UNK         0.0235 
     51 CB         27.5613   -1.0370  -11.0242 C.3       8 UNK        -0.2000 
     52 C          28.9597    1.0564  -11.1349 C.2       8 UNK         0.4941 
     53 O          29.4674    1.3841  -12.2092 O.2       8 UNK        -0.5273 
     54 N          29.5968    1.1245   -9.9566 N.am      9 UNK        -0.4262 
     55 CA         31.0163    1.4788   -9.8447 C.3       9 UNK         0.0264 
     56 CB         31.8862    0.2286  -10.0819 C.3       9 UNK        -0.1955 
     57 C          31.4087    2.1496   -8.5229 C.2       9 UNK         0.5031 
     58 O          32.3125    2.9865   -8.5444 O.2       9 UNK        -0.5390 
     59 N          30.7846    1.7545   -7.4019 N.am      10 UNK        -0.4204 
     60 CA         31.1616    2.1250   -6.0274 C.3       10 UNK         0.0237 
     61 CB         30.9152    3.6255   -5.7563 C.3       10 UNK        -0.1985 
     62 C          32.5863    1.6671   -5.6474 C.2       10 UNK         0.4970 
     63 O          33.2952    2.3711   -4.9256 O.2       10 UNK        -0.4914 
     64 N          32.9753    0.4934   -6.1558 N.am      11 UNK        -0.4285 
     65 CA         34.2509   -0.1846   -5.9001 C.3       11 UNK         0.1007 
     66 C          34.4088   -0.6923   -4.4390 C.2       11 UNK         0.5703 
     67 N          35.6392   -0.9120   -3.9944 N.am      11 UNK        -0.7361 
     68 O          33.4411   -0.9164   -3.7166 O.2       11 UNK        -0.4986 
     69 C69        34.5008   -1.3074   -6.9455 C.3       12 UNK        -0.0947 
     70 S70        33.0719   -2.4187   -7.1958 S.3       12 UNK        -0.2240 
     71 C71        33.4827   -3.8323   -6.1204 C.3       12 UNK         0.0194 
     72 H72        31.0398    1.2795   -1.2481 H         1 UNK         0.0906 
     73 H73        31.9116    1.0556   -2.7640 H         1 UNK         0.0906 
     74 H74        30.4423    2.0332   -2.7261 H         1 UNK         0.0906 
     75 H75        30.2849   -0.7957   -0.7444 H         1 UNK         0.3140 
     76 H76        29.2685   -2.6181   -2.7589 H         1 UNK         0.1085 
     77 H77        29.2823   -2.9422    0.2783 H         1 UNK         0.0836 
     78 H78        29.0026   -4.2044   -0.8874 H         1 UNK         0.0836 
     79 H79        32.3849   -5.6370   -1.4904 H         1 UNK         0.0731 
     80 H80        30.6660   -5.8626   -1.3274 H         1 UNK         0.0731 
     81 H81        33.3075   -4.2684   -3.4300 H         1 UNK         0.1312 
     82 H82        30.9864   -4.4668   -7.0283 H         1 UNK         0.1406 
     83 H83        29.2232   -5.5715   -3.2796 H         1 UNK         0.1631 
     84 H84        28.3825   -6.3573   -5.8308 H         1 UNK         0.0717 
     85 H85        28.7331   -5.1212   -7.0143 H         1 UNK         0.0717 
     86 H86        28.9689   -2.5818   -5.6403 H         1 UNK         0.0934 
     87 H87        27.7064   -2.0629   -4.5728 H         1 UNK         0.0934 
     88 H88        27.5494   -2.2703   -7.6139 H         1 UNK         0.0739 
     89 H89        25.3406   -2.1492   -5.7595 H         1 UNK         0.3093 
     90 H90        22.9788   -0.8540   -8.1044 H         1 UNK         0.0818 
     91 H91        21.8301   -3.0357   -7.8517 H         1 UNK         0.0819 
     92 H92        23.2069   -3.2036   -8.9270 H         1 UNK         0.0819 
     93 H93        23.3186   -3.7864   -7.2722 H         1 UNK         0.0819 
     94 H94        22.5556   -2.0924   -5.5976 H         1 UNK         0.3041 
     95 H95        22.0120    0.7552   -3.9374 H         1 UNK         0.0784 
     96 H96        21.0031   -1.5211   -4.2174 H         1 UNK         0.0793 
     97 H97        22.4523   -2.2553   -3.5212 H         1 UNK         0.0793 
     98 H98        21.4322   -1.2054   -2.5512 H         1 UNK         0.0793 
     99 H99        23.5076    0.7963   -2.2816 H         1 UNK         0.3024 
    100 H100       25.8654    0.9319   -1.6443 H         1 UNK         0.1171 
    101 H101       25.6637   -0.3784    0.5121 H         1 UNK         0.0786 
    102 H102       24.8173   -1.6521   -0.3637 H         1 UNK         0.0786 
    103 H103       24.1095   -0.0529   -0.2294 H         1 UNK         0.0786 
    104 H104       27.8583    0.0080   -1.8446 H         1 UNK         0.2977 
    105 H105       26.3175    0.0831   -5.2594 H         1 UNK         0.3127 
    106 H106       28.3328    2.0814   -5.6208 H         1 UNK         0.0770 
    107 H107       25.4743    2.3187   -4.5595 H         1 UNK         0.0814 
    108 H108       26.7063    3.5668   -4.4470 H         1 UNK         0.0814 
    109 H109       26.9363    2.0441   -3.6070 H         1 UNK         0.0814 
    110 H110       25.1769    1.5135   -7.1924 H         1 UNK         0.2983 
    111 H111       25.2492    3.8103   -8.9002 H         1 UNK         0.0947 
    112 H112       23.4475    2.6292  -10.1339 H         1 UNK         0.0806 
    113 H113       23.1638    2.5315   -8.4023 H         1 UNK         0.0806 
    114 H114       23.7951    1.1365   -9.2747 H         1 UNK         0.0806 
    115 H115       26.3331    0.4142   -9.3929 H         1 UNK         0.3000 
    116 H116       27.0875    0.7449  -12.1076 H         1 UNK         0.0850 
    117 H117       28.2100   -1.4760  -11.7834 H         1 UNK         0.0810 
    118 H118       26.5680   -1.4638  -11.1636 H         1 UNK         0.0810 
    119 H119       27.9310   -1.3608  -10.0504 H         1 UNK         0.0810 
    120 H120       29.1108    0.8298   -9.1136 H         1 UNK         0.3040 
    121 H121       31.2562    2.2083  -10.6218 H         1 UNK         0.0766 
    122 H122       32.9465    0.4561   -9.9620 H         1 UNK         0.0812 
    123 H123       31.6417   -0.5695   -9.3801 H         1 UNK         0.0812 
    124 H124       31.7542   -0.1624  -11.0908 H         1 UNK         0.0812 
    125 H125       30.0412    1.0599   -7.4692 H         1 UNK         0.3205 
    126 H126       30.4984    1.5607   -5.3755 H         1 UNK         0.0754 
    127 H127       31.0359    3.8549   -4.6971 H         1 UNK         0.0769 
    128 H128       29.9058    3.9228   -6.0386 H         1 UNK         0.0769 
    129 H129       31.6137    4.2569   -6.3057 H         1 UNK         0.0769 
    130 H130       32.3141   -0.0399   -6.6997 H         1 UNK         0.2981 
    131 H131       35.0291    0.5676   -6.0436 H         1 UNK         0.0541 
    132 H132       36.4453   -0.7396   -4.5746 H         1 UNK         0.3459 
    133 H133       35.7629   -1.2503   -3.0533 H         1 UNK         0.3459 
    134 H134       35.3937   -1.8883   -6.7083 H         1 UNK         0.0612 
    135 H135       34.7098   -0.8453   -7.9115 H         1 UNK         0.0612 
    136 H136       33.8531   -4.6512   -6.7382 H         1 UNK         0.0624 
    137 H137       34.2965   -3.5606   -5.4471 H         1 UNK         0.0624 
@<TRIPOS>BOND
     1    1    2 1    
     2    1   72 1    
     3    1   73 1    
     4    1   74 1    
     5    2    3 2    
     6    2    4 am   BACKBONE|DICT|INTERRES
     7    4    5 1    
     8    4   75 1    
     9    5    6 1    
    10    5   35 1    
    11    5   76 1    
    12    6    7 1    
    13    6   77 1    
    14    6   78 1    
    15    7    8 1    
    16    8    9 1    
    17    8   79 1    
    18    8   80 1    
    19    9   10 ar   
    20    9   14 ar   
    21   10   11 ar   
    22   10   81 1    
    23   11   12 ar   
    24   11   71 1    
    25   12   13 ar   
    26   12   82 1    
    27   13   14 ar   
    28   13   15 1    
    29   14   83 1    
    30   15   16 1    
    31   15   84 1    
    32   15   85 1    
    33   16   17 1    
    34   17   18 1    
    35   17   86 1    
    36   17   87 1    
    37   18   19 1    
    38   18   37 1    
    39   18   88 1    
    40   19   20 am   BACKBONE|DICT|INTERRES
    41   19   89 1    
    42   20   21 2    
    43   20   22 1    
    44   22   23 1    
    45   22   24 1    
    46   22   90 1    
    47   23   91 1    
    48   23   92 1    
    49   23   93 1    
    50   24   25 am   BACKBONE|DICT|INTERRES
    51   24   94 1    
    52   25   26 2    
    53   25   27 1    
    54   27   28 1    
    55   27   29 1    
    56   27   95 1    
    57   28   96 1    
    58   28   97 1    
    59   28   98 1    
    60   29   30 am   BACKBONE|DICT|INTERRES
    61   29   99 1    
    62   30   31 2    
    63   30   32 1    
    64   32   33 1    
    65   32   34 1    
    66   32  100 1    
    67   33  101 1    
    68   33  102 1    
    69   33  103 1    
    70   34   35 am   BACKBONE|DICT|INTERRES
    71   34  104 1    
    72   35   36 2    
    73   37   38 2    
    74   37   39 am   BACKBONE|DICT|INTERRES
    75   39   40 1    
    76   39  105 1    
    77   40   41 1    
    78   40   42 1    
    79   40  106 1    
    80   41  107 1    
    81   41  108 1    
    82   41  109 1    
    83   42   43 2    
    84   42   44 am   BACKBONE|DICT|INTERRES
    85   44   45 1    
    86   44  110 1    
    87   45   46 1    
    88   45   47 1    
    89   45  111 1    
    90   46  112 1    
    91   46  113 1    
    92   46  114 1    
    93   47   48 2    
    94   47   49 am   BACKBONE|DICT|INTERRES
    95   49   50 1    
    96   49  115 1    
    97   50   51 1    
    98   50   52 1    
    99   50  116 1    
   100   51  117 1    
   101   51  118 1    
   102   51  119 1    
   103   52   53 2    
   104   52   54 am   BACKBONE|DICT|INTERRES
   105   54   55 1    
   106   54  120 1    
   107   55   56 1    
   108   55   57 1    
   109   55  121 1    
   110   56  122 1    
   111   56  123 1    
   112   56  124 1    
   113   57   58 2    
   114   57   59 am   BACKBONE|DICT|INTERRES
   115   59   60 1    
   116   59  125 1    
   117   60   61 1    
   118   60   62 1    
   119   60  126 1    
   120   61  127 1    
   121   61  128 1    
   122   61  129 1    
   123   62   63 2    
   124   62   64 am   BACKBONE|DICT|INTERRES
   125   64   65 1    
   126   64  130 1    
   127   65   66 1    
   128   65   69 1    
   129   65  131 1    
   130   66   67 am   BACKBONE|DICT|INTERRES
   131   66   68 2    
   132   67  132 1    
   133   67  133 1    
   134   69   70 1    
   135   69  134 1    
   136   69  135 1    
   137   70   71 1    
   138   71  136 1    
   139   71  137 1    
@<TRIPOS>SUBSTRUCTURE
     1 UNK         1 GROUP             0       ****    0 ROOT    
