@<TRIPOS>MOLECULE
3R137
137   139    1
SMALL
USER_CHARGES


@<TRIPOS>ATOM
      1 CA         26.3736   -5.4626    1.4382 C.3       0 UNK        -0.2020 
      2 C          26.6478   -4.3678    0.4187 C.2       0 UNK         0.4855 
      3 O          26.6645   -3.1878    0.7724 O.2       0 UNK        -0.5197 
      4 N          26.8558   -4.7418   -0.8499 N.am      1 UNK        -0.4892 
      5 CA         27.1434   -3.8347   -1.9680 C.3       1 UNK         0.0835 
      6 C6         27.9338   -4.5437   -3.1003 C.3       12 UNK        -0.0855 
      7 S7         29.4991   -5.2816   -2.5146 S.3       12 UNK        -0.2931 
      8 C8         30.7166   -4.5952   -3.6944 C.3       12 UNK         0.0378 
      9 C9         31.0137   -3.0979   -3.5716 C.ar      12 UNK        -0.0802 
     10 C10        31.7638   -2.4897   -4.5833 C.ar      12 UNK        -0.0944 
     11 C11        32.0920   -1.1324   -4.5181 C.ar      12 UNK        -0.0787 
     12 C12        31.6473   -0.3689   -3.4372 C.ar      12 UNK        -0.0862 
     13 C13        30.8802   -0.9537   -2.4270 C.ar      12 UNK        -0.0733 
     14 C14        30.5888   -2.3196   -2.4864 C.ar      12 UNK        -0.0832 
     15 C15        30.3579   -0.1076   -1.2745 C.3       12 UNK         0.0240 
     16 S16        29.2175    1.1983   -1.8404 S.3       12 UNK        -0.2522 
     17 C17        27.9138    0.2477   -2.6968 C.3       12 UNK        -0.0967 
     18 CA         27.9408    0.4370   -4.2372 C.3       5 UNK         0.0660 
     19 N          27.1516   -0.5832   -4.9291 N.am      5 UNK        -0.4015 
     20 C          27.2417   -0.8602   -6.2384 C.2       4 UNK         0.4946 
     21 O          28.0786   -0.3653   -6.9952 O.2       4 UNK        -0.5353 
     22 CA         26.1928   -1.8228   -6.8190 C.3       4 UNK         0.0277 
     23 CB         26.7136   -3.2689   -6.8239 C.3       4 UNK        -0.1981 
     24 N          24.9061   -1.7521   -6.1186 N.am      4 UNK        -0.4209 
     25 C          24.0676   -0.7087   -6.2163 C.2       3 UNK         0.4942 
     26 O          24.2911    0.2783   -6.9139 O.2       3 UNK        -0.5208 
     27 CA         22.7881   -0.7353   -5.3634 C.3       3 UNK         0.0250 
     28 CB         21.6610   -1.4672   -6.1085 C.3       3 UNK        -0.1990 
     29 N          22.9676   -1.3319   -4.0386 N.am      3 UNK        -0.4232 
     30 C          23.8389   -0.9144   -3.1098 C.2       2 UNK         0.4993 
     31 O          24.6082    0.0346   -3.2729 O.2       2 UNK        -0.5286 
     32 CA         23.9067   -1.7132   -1.7943 C.3       2 UNK         0.0209 
     33 CB         22.7665   -2.7425   -1.6205 C.3       2 UNK        -0.1931 
     34 N          25.2028   -2.3788   -1.6135 N.am      2 UNK        -0.4546 
     35 C          25.8420   -3.1793   -2.4797 C.2       1 UNK         0.5154 
     36 O          25.4332   -3.4218   -3.6173 O.2       1 UNK        -0.5181 
     37 C          27.4653    1.8417   -4.6575 C.2       5 UNK         0.5014 
     38 O          28.2851    2.6625   -5.0701 O.2       5 UNK        -0.5248 
     39 N          26.1459    2.0749   -4.5754 N.am      6 UNK        -0.4434 
     40 CA         25.4897    3.3439   -4.9016 C.3       6 UNK         0.0363 
     41 CB         23.9980    3.2555   -4.5426 C.3       6 UNK        -0.1936 
     42 C          25.6698    3.7775   -6.3665 C.2       6 UNK         0.5081 
     43 O          25.9525    4.9492   -6.6180 O.2       6 UNK        -0.5248 
     44 N          25.5182    2.8322   -7.3038 N.am      7 UNK        -0.4718 
     45 CA         25.7052    3.0603   -8.7398 C.3       7 UNK         0.0273 
     46 CB         24.9509    1.9733   -9.5238 C.3       7 UNK        -0.1935 
     47 C          27.1820    3.0870   -9.1713 C.2       7 UNK         0.5018 
     48 O          27.4583    3.5299  -10.2868 O.2       7 UNK        -0.5186 
     49 N          28.0862    2.5927   -8.3095 N.am      8 UNK        -0.4240 
     50 CA         29.5131    2.3496   -8.5551 C.3       8 UNK         0.0235 
     51 CB         30.2837    3.6756   -8.7254 C.3       8 UNK        -0.2000 
     52 C          29.7150    1.3700   -9.7269 C.2       8 UNK         0.4941 
     53 O          30.3770    1.6959  -10.7137 O.2       8 UNK        -0.5273 
     54 N          29.1005    0.1864   -9.6004 N.am      9 UNK        -0.4262 
     55 CA         29.0736   -0.8653  -10.6238 C.3       9 UNK         0.0264 
     56 CB         27.8553   -1.7681  -10.3685 C.3       9 UNK        -0.1955 
     57 C          30.3678   -1.7005  -10.6987 C.2       9 UNK         0.5031 
     58 O          30.4772   -2.5637  -11.5713 O.2       9 UNK        -0.5390 
     59 N          31.3134   -1.4449   -9.7911 N.am      10 UNK        -0.4204 
     60 CA         32.6271   -2.0715   -9.6966 C.3       10 UNK         0.0237 
     61 CB         32.5287   -3.3366   -8.8190 C.3       10 UNK        -0.1985 
     62 C          33.6157   -1.0294   -9.1480 C.2       10 UNK         0.4970 
     63 O          33.2944    0.1617   -9.1324 O.2       10 UNK        -0.4914 
     64 N          34.7842   -1.4928   -8.6871 N.am      11 UNK        -0.4285 
     65 CA         35.8576   -0.6838   -8.0763 C.3       11 UNK         0.1007 
     66 C          36.6360    0.2240   -9.0785 C.2       11 UNK         0.5703 
     67 N          36.5069    0.0309  -10.3862 N.am      11 UNK        -0.7361 
     68 O          37.3991    1.0962   -8.6690 O.2       11 UNK        -0.4986 
     69 C69        35.4085    0.0915   -6.7992 C.3       12 UNK        -0.0947 
     70 S70        34.6649   -0.9720   -5.5151 S.3       12 UNK        -0.2240 
     71 C71        32.9132   -0.4878   -5.6216 C.3       12 UNK         0.0194 
     72 H72        25.3929   -5.3169    1.8900 H         1 UNK         0.0906 
     73 H73        26.3962   -6.4547    0.9878 H         1 UNK         0.0906 
     74 H74        27.1217   -5.4328    2.2299 H         1 UNK         0.0906 
     75 H75        26.8232   -5.7230   -1.0892 H         1 UNK         0.3140 
     76 H76        27.7672   -3.0228   -1.5927 H         1 UNK         0.1085 
     77 H77        28.1572   -3.8327   -3.8975 H         1 UNK         0.0836 
     78 H78        27.3348   -5.3350   -3.5555 H         1 UNK         0.0836 
     79 H79        30.3762   -4.8156   -4.7076 H         1 UNK         0.0731 
     80 H80        31.6537   -5.1376   -3.5623 H         1 UNK         0.0731 
     81 H81        32.1106   -3.0795   -5.4203 H         1 UNK         0.1312 
     82 H82        31.8827    0.6856   -3.3862 H         1 UNK         0.1406 
     83 H83        30.0312   -2.7685   -1.6789 H         1 UNK         0.1631 
     84 H84        31.2009    0.3567   -0.7611 H         1 UNK         0.0717 
     85 H85        29.8480   -0.7246   -0.5328 H         1 UNK         0.0717 
     86 H86        28.0370   -0.8064   -2.4525 H         1 UNK         0.0934 
     87 H87        26.9494    0.5334   -2.2743 H         1 UNK         0.0934 
     88 H88        28.9744    0.3229   -4.5726 H         1 UNK         0.0739 
     89 H89        26.3835   -0.9867   -4.4111 H         1 UNK         0.3093 
     90 H90        26.0268   -1.5246   -7.8565 H         1 UNK         0.0818 
     91 H91        27.6965   -3.3343   -7.2918 H         1 UNK         0.0819 
     92 H92        26.0452   -3.9257   -7.3806 H         1 UNK         0.0819 
     93 H93        26.8110   -3.6710   -5.8174 H         1 UNK         0.0819 
     94 H94        24.6929   -2.5012   -5.4692 H         1 UNK         0.3041 
     95 H95        22.4767    0.2997   -5.2116 H         1 UNK         0.0784 
     96 H96        21.4940   -1.0261   -7.0925 H         1 UNK         0.0793 
     97 H97        21.8937   -2.5221   -6.2595 H         1 UNK         0.0793 
     98 H98        20.7185   -1.4046   -5.5643 H         1 UNK         0.0793 
     99 H99        22.3996   -2.1388   -3.8250 H         1 UNK         0.3024 
    100 H100       23.8159   -0.9767   -0.9940 H         1 UNK         0.1171 
    101 H101       22.8126   -3.2075   -0.6355 H         1 UNK         0.0786 
    102 H102       21.7866   -2.2692   -1.6991 H         1 UNK         0.0786 
    103 H103       22.8158   -3.5436   -2.3592 H         1 UNK         0.0786 
    104 H104       25.6246   -2.2818   -0.6941 H         1 UNK         0.2977 
    105 H105       25.5485    1.3405   -4.1990 H         1 UNK         0.3127 
    106 H106       25.9444    4.1128   -4.2737 H         1 UNK         0.0770 
    107 H107       23.4862    2.4975   -5.1357 H         1 UNK         0.0814 
    108 H108       23.4959    4.2065   -4.7254 H         1 UNK         0.0814 
    109 H109       23.8556    3.0098   -3.4900 H         1 UNK         0.0814 
    110 H110       25.2180    1.8985   -7.0281 H         1 UNK         0.2983 
    111 H111       25.2720    4.0290   -8.9990 H         1 UNK         0.0947 
    112 H112       25.0121    2.1509  -10.5983 H         1 UNK         0.0806 
    113 H113       23.8937    1.9527   -9.2585 H         1 UNK         0.0806 
    114 H114       25.3635    0.9814   -9.3339 H         1 UNK         0.0806 
    115 H115       27.7431    2.2700   -7.4141 H         1 UNK         0.3000 
    116 H116       29.9002    1.8553   -7.6622 H         1 UNK         0.0850 
    117 H117       31.3547    3.4913   -8.8182 H         1 UNK         0.0810 
    118 H118       30.1393    4.3290   -7.8649 H         1 UNK         0.0810 
    119 H119       29.9700    4.2196   -9.6168 H         1 UNK         0.0810 
    120 H120       28.6218   -0.0140   -8.7222 H         1 UNK         0.3040 
    121 H121       28.9432   -0.3905  -11.5986 H         1 UNK         0.0766 
    122 H122       26.9300   -1.1921  -10.3452 H         1 UNK         0.0812 
    123 H123       27.9464   -2.3010   -9.4228 H         1 UNK         0.0812 
    124 H124       27.7500   -2.5167  -11.1548 H         1 UNK         0.0812 
    125 H125       31.1837   -0.6489   -9.1810 H         1 UNK         0.3205 
    126 H126       32.9692   -2.3485  -10.6959 H         1 UNK         0.0754 
    127 H127       33.4680   -3.8897   -8.7999 H         1 UNK         0.0769 
    128 H128       31.7692   -4.0209   -9.1980 H         1 UNK         0.0769 
    129 H129       32.2670   -3.0906   -7.7899 H         1 UNK         0.0769 
    130 H130       34.9704   -2.4831   -8.7446 H         1 UNK         0.2981 
    131 H131       36.6008   -1.4124   -7.7513 H         1 UNK         0.0541 
    132 H132       35.8976   -0.6882  -10.7403 H         1 UNK         0.3459 
    133 H133       37.0239    0.6155  -11.0239 H         1 UNK         0.3459 
    134 H134       36.2689    0.5769   -6.3357 H         1 UNK         0.0612 
    135 H135       34.7216    0.8988   -7.0558 H         1 UNK         0.0612 
    136 H136       32.8345    0.5994   -5.5706 H         1 UNK         0.0624 
    137 H137       32.5024   -0.7825   -6.5857 H         1 UNK         0.0624 
@<TRIPOS>BOND
     1    1    2 1    
     2    1   72 1    
     3    1   73 1    
     4    1   74 1    
     5    2    3 2    
     6    2    4 am   BACKBONE|DICT|INTERRES
     7    4    5 1    
     8    4   75 1    
     9    5    6 1    
    10    5   35 1    
    11    5   76 1    
    12    6    7 1    
    13    6   77 1    
    14    6   78 1    
    15    7    8 1    
    16    8    9 1    
    17    8   79 1    
    18    8   80 1    
    19    9   10 ar   
    20    9   14 ar   
    21   10   11 ar   
    22   10   81 1    
    23   11   12 ar   
    24   11   71 1    
    25   12   13 ar   
    26   12   82 1    
    27   13   14 ar   
    28   13   15 1    
    29   14   83 1    
    30   15   16 1    
    31   15   84 1    
    32   15   85 1    
    33   16   17 1    
    34   17   18 1    
    35   17   86 1    
    36   17   87 1    
    37   18   19 1    
    38   18   37 1    
    39   18   88 1    
    40   19   20 am   BACKBONE|DICT|INTERRES
    41   19   89 1    
    42   20   21 2    
    43   20   22 1    
    44   22   23 1    
    45   22   24 1    
    46   22   90 1    
    47   23   91 1    
    48   23   92 1    
    49   23   93 1    
    50   24   25 am   BACKBONE|DICT|INTERRES
    51   24   94 1    
    52   25   26 2    
    53   25   27 1    
    54   27   28 1    
    55   27   29 1    
    56   27   95 1    
    57   28   96 1    
    58   28   97 1    
    59   28   98 1    
    60   29   30 am   BACKBONE|DICT|INTERRES
    61   29   99 1    
    62   30   31 2    
    63   30   32 1    
    64   32   33 1    
    65   32   34 1    
    66   32  100 1    
    67   33  101 1    
    68   33  102 1    
    69   33  103 1    
    70   34   35 am   BACKBONE|DICT|INTERRES
    71   34  104 1    
    72   35   36 2    
    73   37   38 2    
    74   37   39 am   BACKBONE|DICT|INTERRES
    75   39   40 1    
    76   39  105 1    
    77   40   41 1    
    78   40   42 1    
    79   40  106 1    
    80   41  107 1    
    81   41  108 1    
    82   41  109 1    
    83   42   43 2    
    84   42   44 am   BACKBONE|DICT|INTERRES
    85   44   45 1    
    86   44  110 1    
    87   45   46 1    
    88   45   47 1    
    89   45  111 1    
    90   46  112 1    
    91   46  113 1    
    92   46  114 1    
    93   47   48 2    
    94   47   49 am   BACKBONE|DICT|INTERRES
    95   49   50 1    
    96   49  115 1    
    97   50   51 1    
    98   50   52 1    
    99   50  116 1    
   100   51  117 1    
   101   51  118 1    
   102   51  119 1    
   103   52   53 2    
   104   52   54 am   BACKBONE|DICT|INTERRES
   105   54   55 1    
   106   54  120 1    
   107   55   56 1    
   108   55   57 1    
   109   55  121 1    
   110   56  122 1    
   111   56  123 1    
   112   56  124 1    
   113   57   58 2    
   114   57   59 am   BACKBONE|DICT|INTERRES
   115   59   60 1    
   116   59  125 1    
   117   60   61 1    
   118   60   62 1    
   119   60  126 1    
   120   61  127 1    
   121   61  128 1    
   122   61  129 1    
   123   62   63 2    
   124   62   64 am   BACKBONE|DICT|INTERRES
   125   64   65 1    
   126   64  130 1    
   127   65   66 1    
   128   65   69 1    
   129   65  131 1    
   130   66   67 am   BACKBONE|DICT|INTERRES
   131   66   68 2    
   132   67  132 1    
   133   67  133 1    
   134   69   70 1    
   135   69  134 1    
   136   69  135 1    
   137   70   71 1    
   138   71  136 1    
   139   71  137 1    
@<TRIPOS>SUBSTRUCTURE
     1 UNK         1 GROUP             0       ****    0 ROOT    
