@<TRIPOS>MOLECULE
3R137
137   139    1
SMALL
USER_CHARGES


@<TRIPOS>ATOM
      1 CA         28.8473   -2.5588    1.9646 C.3       0 UNK        -0.2020 
      2 C          28.6813   -1.9966    0.5612 C.2       0 UNK         0.4855 
      3 O          28.1700   -2.6939   -0.3144 O.2       0 UNK        -0.5197 
      4 N          29.1091   -0.7439    0.3486 N.am      1 UNK        -0.4892 
      5 CA         29.0860    0.0380   -0.9007 C.3       1 UNK         0.0835 
      6 C6         29.8593   -0.6012   -2.0828 C.3       12 UNK        -0.0855 
      7 S7         31.6201   -0.9267   -1.7320 S.3       12 UNK        -0.2931 
      8 C8         31.6660   -2.7479   -1.6294 C.3       12 UNK         0.0378 
      9 C9         31.2269   -3.4209   -2.9239 C.ar      12 UNK        -0.0802 
     10 C10        32.0499   -3.3810   -4.0523 C.ar      12 UNK        -0.0944 
     11 C11        31.6557   -3.9989   -5.2426 C.ar      12 UNK        -0.0787 
     12 C12        30.4216   -4.6551   -5.3010 C.ar      12 UNK        -0.0862 
     13 C13        29.5914   -4.7105   -4.1756 C.ar      12 UNK        -0.0733 
     14 C14        30.0044   -4.0974   -2.9892 C.ar      12 UNK        -0.0832 
     15 C15        28.2702   -5.4668   -4.2270 C.3       12 UNK         0.0240 
     16 S16        26.8309   -4.3705   -3.9813 S.3       12 UNK        -0.2522 
     17 C17        25.7092   -4.9176   -5.3220 C.3       12 UNK        -0.0967 
     18 CA         25.5972   -3.9842   -6.5617 C.3       5 UNK         0.0660 
     19 N          24.6762   -2.8622   -6.3484 N.am      5 UNK        -0.4015 
     20 C          23.7967   -2.4391   -7.2709 C.2       4 UNK         0.4946 
     21 O          23.6436   -2.9767   -8.3687 O.2       4 UNK        -0.5353 
     22 CA         22.9306   -1.2125   -6.9313 C.3       4 UNK         0.0277 
     23 CB         21.6413   -1.6476   -6.2156 C.3       4 UNK        -0.1981 
     24 N          23.6196   -0.2090   -6.1215 N.am      4 UNK        -0.4209 
     25 C          24.6810    0.5045   -6.5211 C.2       3 UNK         0.4942 
     26 O          25.1765    0.4326   -7.6458 O.2       3 UNK        -0.5208 
     27 CA         25.3264    1.4327   -5.4764 C.3       3 UNK         0.0250 
     28 CB         24.7666    2.8584   -5.6004 C.3       3 UNK        -0.1990 
     29 N          25.1899    0.9827   -4.0864 N.am      3 UNK        -0.4232 
     30 C          25.5994   -0.2024   -3.6154 C.2       2 UNK         0.4993 
     31 O          26.0677   -1.0954   -4.3259 O.2       2 UNK        -0.5286 
     32 CA         25.4553   -0.4309   -2.1038 C.3       2 UNK         0.0209 
     33 CB         24.6299   -1.6948   -1.8121 C.3       2 UNK        -0.1931 
     34 N          26.7760   -0.5639   -1.4960 N.am      2 UNK        -0.4546 
     35 C          27.6652    0.4268   -1.3588 C.2       1 UNK         0.5154 
     36 O          27.4064    1.6084   -1.5930 O.2       1 UNK        -0.5181 
     37 C          26.9558   -3.4815   -7.0876 C.2       5 UNK         0.5014 
     38 O          27.5604   -4.1465   -7.9296 O.2       5 UNK        -0.5248 
     39 N          27.4031   -2.3158   -6.5983 N.am      6 UNK        -0.4434 
     40 CA         28.7175   -1.7365   -6.8747 C.3       6 UNK         0.0363 
     41 CB         29.1860   -0.9660   -5.6308 C.3       6 UNK        -0.1936 
     42 C          28.7845   -0.8848   -8.1570 C.2       6 UNK         0.5081 
     43 O          29.7007   -0.0704   -8.2861 O.2       6 UNK        -0.5248 
     44 N          27.8275   -1.0769   -9.0774 N.am      7 UNK        -0.4718 
     45 CA         27.7393   -0.4784  -10.4166 C.3       7 UNK         0.0273 
     46 CB         28.8526   -1.0446  -11.3240 C.3       7 UNK        -0.1935 
     47 C          27.7231    1.0610  -10.3851 C.2       7 UNK         0.5018 
     48 O          28.5956    1.7007  -10.9734 O.2       7 UNK        -0.5186 
     49 N          26.7414    1.6169   -9.6609 N.am      8 UNK        -0.4240 
     50 CA         26.5669    3.0422   -9.3498 C.3       8 UNK         0.0235 
     51 CB         26.3970    3.8973  -10.6249 C.3       8 UNK        -0.2000 
     52 C          27.6588    3.5709   -8.3982 C.2       8 UNK         0.4941 
     53 O          28.0336    4.7413   -8.4830 O.2       8 UNK        -0.5273 
     54 N          28.1333    2.6871   -7.5054 N.am      9 UNK        -0.4262 
     55 CA         29.2007    2.8902   -6.5183 C.3       9 UNK         0.0264 
     56 CB         28.7790    3.9136   -5.4428 C.3       9 UNK        -0.1955 
     57 C          30.5589    3.2087   -7.1725 C.2       9 UNK         0.5031 
     58 O          31.2849    4.0861   -6.7009 O.2       9 UNK        -0.5390 
     59 N          30.8782    2.4772   -8.2473 N.am      10 UNK        -0.4204 
     60 CA         32.1390    2.5758   -8.9777 C.3       10 UNK         0.0237 
     61 CB         31.9372    2.0881  -10.4215 C.3       10 UNK        -0.1985 
     62 C          33.2527    1.7788   -8.2859 C.2       10 UNK         0.4970 
     63 O          34.3597    2.2992   -8.1427 O.2       10 UNK        -0.4914 
     64 N          32.9429    0.5415   -7.8746 N.am      11 UNK        -0.4285 
     65 CA         33.8841   -0.3709   -7.2028 C.3       11 UNK         0.1007 
     66 C          33.8035   -0.3503   -5.6492 C.2       11 UNK         0.5703 
     67 N          32.9047    0.4134   -5.0393 N.am      11 UNK        -0.7361 
     68 O          34.5913   -1.0201   -4.9858 O.2       11 UNK        -0.4986 
     69 C69        33.8136   -1.8025   -7.7976 C.3       12 UNK        -0.0947 
     70 S70        32.1950   -2.6218   -7.5894 S.3       12 UNK        -0.2240 
     71 C71        32.5816   -3.9889   -6.4499 C.3       12 UNK         0.0194 
     72 H72        27.8754   -2.8285    2.3771 H         1 UNK         0.0906 
     73 H73        29.3167   -1.8437    2.6400 H         1 UNK         0.0906 
     74 H74        29.4662   -3.4553    1.9368 H         1 UNK         0.0906 
     75 H75        29.4992   -0.2411    1.1341 H         1 UNK         0.3140 
     76 H76        29.5898    0.9761   -0.6604 H         1 UNK         0.1085 
     77 H77        29.3637   -1.5160   -2.4051 H         1 UNK         0.0836 
     78 H78        29.8340    0.0655   -2.9470 H         1 UNK         0.0836 
     79 H79        31.0488   -3.0778   -0.7934 H         1 UNK         0.0731 
     80 H80        32.6845   -3.0592   -1.3934 H         1 UNK         0.0731 
     81 H81        33.0005   -2.8689   -3.9995 H         1 UNK         0.1312 
     82 H82        30.1142   -5.1314   -6.2223 H         1 UNK         0.1406 
     83 H83        29.3631   -4.1403   -2.1192 H         1 UNK         0.1631 
     84 H84        28.2639   -6.2339   -3.4517 H         1 UNK         0.0717 
     85 H85        28.1880   -5.9957   -5.1770 H         1 UNK         0.0717 
     86 H86        26.0083   -5.9137   -5.6509 H         1 UNK         0.0934 
     87 H87        24.7194   -5.0629   -4.8863 H         1 UNK         0.0934 
     88 H88        25.1887   -4.6121   -7.3568 H         1 UNK         0.0739 
     89 H89        24.7972   -2.3373   -5.4897 H         1 UNK         0.3093 
     90 H90        22.6529   -0.7385   -7.8753 H         1 UNK         0.0818 
     91 H91        21.0933   -2.3796   -6.8108 H         1 UNK         0.0819 
     92 H92        21.8493   -2.1054   -5.2476 H         1 UNK         0.0819 
     93 H93        20.9729   -0.8021   -6.0517 H         1 UNK         0.0819 
     94 H94        23.2843   -0.0731   -5.1792 H         1 UNK         0.3041 
     95 H95        26.3949    1.4617   -5.6930 H         1 UNK         0.0784 
     96 H96        24.8689    3.2380   -6.6163 H         1 UNK         0.0793 
     97 H97        23.7069    2.8988   -5.3454 H         1 UNK         0.0793 
     98 H98        25.2953    3.5518   -4.9461 H         1 UNK         0.0793 
     99 H99        24.8308    1.6631   -3.4316 H         1 UNK         0.3024 
    100 H100       24.9485    0.4242   -1.6512 H         1 UNK         0.1171 
    101 H101       23.6379   -1.6277   -2.2605 H         1 UNK         0.0786 
    102 H102       25.1084   -2.5907   -2.2095 H         1 UNK         0.0786 
    103 H103       24.4934   -1.8392   -0.7403 H         1 UNK         0.0786 
    104 H104       27.0945   -1.5041   -1.2706 H         1 UNK         0.2977 
    105 H105       26.8636   -1.8602   -5.8651 H         1 UNK         0.3127 
    106 H106       29.4174   -2.5578   -7.0259 H         1 UNK         0.0770 
    107 H107       28.5067   -0.1529   -5.3775 H         1 UNK         0.0814 
    108 H108       30.1839   -0.5490   -5.7690 H         1 UNK         0.0814 
    109 H109       29.2407   -1.6347   -4.7726 H         1 UNK         0.0814 
    110 H110       27.1072   -1.7477   -8.8492 H         1 UNK         0.2983 
    111 H111       26.7814   -0.7883  -10.8376 H         1 UNK         0.0947 
    112 H112       29.8458   -0.7700  -10.9670 H         1 UNK         0.0806 
    113 H113       28.7574   -0.6661  -12.3424 H         1 UNK         0.0806 
    114 H114       28.8059   -2.1323  -11.3767 H         1 UNK         0.0806 
    115 H115       26.1070    0.9964   -9.1590 H         1 UNK         0.3000 
    116 H116       25.6292    3.1084   -8.7985 H         1 UNK         0.0850 
    117 H117       26.0908    4.9132  -10.3726 H         1 UNK         0.0810 
    118 H118       25.6330    3.4834  -11.2826 H         1 UNK         0.0810 
    119 H119       27.3249    3.9742  -11.1921 H         1 UNK         0.0810 
    120 H120       27.7794    1.7437   -7.5753 H         1 UNK         0.3040 
    121 H121       29.3375    1.9347   -6.0138 H         1 UNK         0.0766 
    122 H122       28.6552    4.9134   -5.8596 H         1 UNK         0.0812 
    123 H123       29.5291    3.9820   -4.6540 H         1 UNK         0.0812 
    124 H124       27.8405    3.6274   -4.9687 H         1 UNK         0.0812 
    125 H125       30.2585    1.7135   -8.5117 H         1 UNK         0.3205 
    126 H126       32.4459    3.6234   -9.0154 H         1 UNK         0.0754 
    127 H127       32.8693    2.1349  -10.9861 H         1 UNK         0.0769 
    128 H128       31.2086    2.7064  -10.9463 H         1 UNK         0.0769 
    129 H129       31.5821    1.0572  -10.4561 H         1 UNK         0.0769 
    130 H130       32.0059    0.1859   -8.0196 H         1 UNK         0.2981 
    131 H131       34.8969   -0.0244   -7.4154 H         1 UNK         0.0541 
    132 H132       32.8595    0.4063   -4.0325 H         1 UNK         0.3459 
    133 H133       32.2831    0.9949   -5.5742 H         1 UNK         0.3459 
    134 H134       34.6123   -2.4229   -7.3894 H         1 UNK         0.0612 
    135 H135       34.0144   -1.7537   -8.8688 H         1 UNK         0.0612 
    136 H136       33.6165   -3.9334   -6.1113 H         1 UNK         0.0624 
    137 H137       32.4942   -4.9311   -6.9927 H         1 UNK         0.0624 
@<TRIPOS>BOND
     1    1    2 1    
     2    1   72 1    
     3    1   73 1    
     4    1   74 1    
     5    2    3 2    
     6    2    4 am   BACKBONE|DICT|INTERRES
     7    4    5 1    
     8    4   75 1    
     9    5    6 1    
    10    5   35 1    
    11    5   76 1    
    12    6    7 1    
    13    6   77 1    
    14    6   78 1    
    15    7    8 1    
    16    8    9 1    
    17    8   79 1    
    18    8   80 1    
    19    9   10 ar   
    20    9   14 ar   
    21   10   11 ar   
    22   10   81 1    
    23   11   12 ar   
    24   11   71 1    
    25   12   13 ar   
    26   12   82 1    
    27   13   14 ar   
    28   13   15 1    
    29   14   83 1    
    30   15   16 1    
    31   15   84 1    
    32   15   85 1    
    33   16   17 1    
    34   17   18 1    
    35   17   86 1    
    36   17   87 1    
    37   18   19 1    
    38   18   37 1    
    39   18   88 1    
    40   19   20 am   BACKBONE|DICT|INTERRES
    41   19   89 1    
    42   20   21 2    
    43   20   22 1    
    44   22   23 1    
    45   22   24 1    
    46   22   90 1    
    47   23   91 1    
    48   23   92 1    
    49   23   93 1    
    50   24   25 am   BACKBONE|DICT|INTERRES
    51   24   94 1    
    52   25   26 2    
    53   25   27 1    
    54   27   28 1    
    55   27   29 1    
    56   27   95 1    
    57   28   96 1    
    58   28   97 1    
    59   28   98 1    
    60   29   30 am   BACKBONE|DICT|INTERRES
    61   29   99 1    
    62   30   31 2    
    63   30   32 1    
    64   32   33 1    
    65   32   34 1    
    66   32  100 1    
    67   33  101 1    
    68   33  102 1    
    69   33  103 1    
    70   34   35 am   BACKBONE|DICT|INTERRES
    71   34  104 1    
    72   35   36 2    
    73   37   38 2    
    74   37   39 am   BACKBONE|DICT|INTERRES
    75   39   40 1    
    76   39  105 1    
    77   40   41 1    
    78   40   42 1    
    79   40  106 1    
    80   41  107 1    
    81   41  108 1    
    82   41  109 1    
    83   42   43 2    
    84   42   44 am   BACKBONE|DICT|INTERRES
    85   44   45 1    
    86   44  110 1    
    87   45   46 1    
    88   45   47 1    
    89   45  111 1    
    90   46  112 1    
    91   46  113 1    
    92   46  114 1    
    93   47   48 2    
    94   47   49 am   BACKBONE|DICT|INTERRES
    95   49   50 1    
    96   49  115 1    
    97   50   51 1    
    98   50   52 1    
    99   50  116 1    
   100   51  117 1    
   101   51  118 1    
   102   51  119 1    
   103   52   53 2    
   104   52   54 am   BACKBONE|DICT|INTERRES
   105   54   55 1    
   106   54  120 1    
   107   55   56 1    
   108   55   57 1    
   109   55  121 1    
   110   56  122 1    
   111   56  123 1    
   112   56  124 1    
   113   57   58 2    
   114   57   59 am   BACKBONE|DICT|INTERRES
   115   59   60 1    
   116   59  125 1    
   117   60   61 1    
   118   60   62 1    
   119   60  126 1    
   120   61  127 1    
   121   61  128 1    
   122   61  129 1    
   123   62   63 2    
   124   62   64 am   BACKBONE|DICT|INTERRES
   125   64   65 1    
   126   64  130 1    
   127   65   66 1    
   128   65   69 1    
   129   65  131 1    
   130   66   67 am   BACKBONE|DICT|INTERRES
   131   66   68 2    
   132   67  132 1    
   133   67  133 1    
   134   69   70 1    
   135   69  134 1    
   136   69  135 1    
   137   70   71 1    
   138   71  136 1    
   139   71  137 1    
@<TRIPOS>SUBSTRUCTURE
     1 UNK         1 GROUP             0       ****    0 ROOT    
