@<TRIPOS>MOLECULE
3R137
137   139    1
SMALL
USER_CHARGES


@<TRIPOS>ATOM
      1 CA         27.7423   -3.2112    2.1274 C.3       0 UNK        -0.2020 
      2 C          27.5959   -2.8035    0.6700 C.2       0 UNK         0.4855 
      3 O          27.5390   -1.6122    0.3668 O.2       0 UNK        -0.5197 
      4 N          27.5121   -3.7796   -0.2419 N.am      1 UNK        -0.4892 
      5 CA         27.4350   -3.5976   -1.7002 C.3       1 UNK         0.0835 
      6 C6         28.0065   -4.8252   -2.4602 C.3       12 UNK        -0.0855 
      7 S7         29.7046   -5.2596   -1.9415 S.3       12 UNK        -0.2931 
      8 C8         30.7140   -4.6650   -3.3467 C.3       12 UNK         0.0378 
      9 C9         30.7909   -3.1450   -3.5107 C.ar      12 UNK        -0.0802 
     10 C10        31.0686   -2.6186   -4.7778 C.ar      12 UNK        -0.0944 
     11 C11        31.1792   -1.2385   -4.9677 C.ar      12 UNK        -0.0787 
     12 C12        31.0076   -0.3799   -3.8814 C.ar      12 UNK        -0.0862 
     13 C13        30.6814   -0.8803   -2.6195 C.ar      12 UNK        -0.0733 
     14 C14        30.6169   -2.2644   -2.4332 C.ar      12 UNK        -0.0832 
     15 C15        30.3811    0.0652   -1.4589 C.3       12 UNK         0.0240 
     16 S16        29.2723    1.4523   -1.9082 S.3       12 UNK        -0.2522 
     17 C17        27.8136    0.6005   -2.6047 C.3       12 UNK        -0.0967 
     18 CA         27.7393    0.7274   -4.1508 C.3       5 UNK         0.0660 
     19 N          27.0693   -0.4154   -4.7705 N.am      5 UNK        -0.4015 
     20 C          27.2370   -0.7946   -6.0457 C.2       4 UNK         0.4946 
     21 O          28.0212   -0.2565   -6.8285 O.2       4 UNK        -0.5353 
     22 CA         26.3618   -1.9544   -6.5482 C.3       4 UNK         0.0277 
     23 CB         27.0863   -3.2939   -6.3539 C.3       4 UNK        -0.1981 
     24 N          25.0487   -2.0027   -5.8981 N.am      4 UNK        -0.4209 
     25 C          24.0871   -1.0882   -6.0968 C.2       3 UNK         0.4942 
     26 O          24.2008   -0.1392   -6.8700 O.2       3 UNK        -0.5208 
     27 CA         22.8064   -1.2090   -5.2536 C.3       3 UNK         0.0250 
     28 CB         21.7881   -2.1244   -5.9508 C.3       3 UNK        -0.1990 
     29 N          23.0360   -1.6827   -3.8862 N.am      3 UNK        -0.4232 
     30 C          23.8584   -1.1149   -2.9929 C.2       2 UNK         0.4993 
     31 O          24.5377   -0.1133   -3.2279 O.2       2 UNK        -0.5286 
     32 CA         23.9946   -1.7970   -1.6211 C.3       2 UNK         0.0209 
     33 CB         22.9486   -2.9030   -1.3503 C.3       2 UNK        -0.1931 
     34 N          25.3506   -2.3179   -1.4199 N.am      2 UNK        -0.4546 
     35 C          26.0177   -3.1999   -2.1797 C.2       1 UNK         0.5154 
     36 O          25.5579   -3.6849   -3.2159 O.2       1 UNK        -0.5181 
     37 C          27.0972    2.0477   -4.6100 C.2       5 UNK         0.5014 
     38 O          27.8205    2.9830   -4.9538 O.2       5 UNK        -0.5248 
     39 N          25.7569    2.0824   -4.6613 N.am      6 UNK        -0.4434 
     40 CA         24.9698    3.2081   -5.1719 C.3       6 UNK         0.0363 
     41 CB         23.4759    2.9459   -4.9243 C.3       6 UNK        -0.1936 
     42 C          25.2335    3.5019   -6.6603 C.2       6 UNK         0.5081 
     43 O          25.3705    4.6678   -7.0314 O.2       6 UNK        -0.5248 
     44 N          25.3199    2.4450   -7.4801 N.am      7 UNK        -0.4718 
     45 CA         25.6357    2.5281   -8.9089 C.3       7 UNK         0.0273 
     46 CB         25.1871    1.2282   -9.5971 C.3       7 UNK        -0.1935 
     47 C          27.1247    2.7848   -9.2023 C.2       7 UNK         0.5018 
     48 O          27.4373    3.2170  -10.3123 O.2       7 UNK        -0.5186 
     49 N          28.0038    2.4878   -8.2311 N.am      8 UNK        -0.4240 
     50 CA         29.4695    2.4651   -8.3281 C.3       8 UNK         0.0235 
     51 CB         30.0388    3.8831   -8.5427 C.3       8 UNK        -0.2000 
     52 C          29.9346    1.4525   -9.3930 C.2       8 UNK         0.4941 
     53 O          30.6221    1.8192  -10.3492 O.2       8 UNK        -0.5273 
     54 N          29.4889    0.1992   -9.2317 N.am      9 UNK        -0.4262 
     55 CA         29.5852   -0.8946  -10.2031 C.3       9 UNK         0.0264 
     56 CB         28.6034   -2.0034   -9.7842 C.3       9 UNK        -0.1955 
     57 C          31.0137   -1.4328  -10.4353 C.2       9 UNK         0.5031 
     58 O          31.2866   -2.5996  -10.1480 O.2       9 UNK        -0.5390 
     59 N          31.8882   -0.5761  -10.9793 N.am      10 UNK        -0.4204 
     60 CA         33.2364   -0.8592  -11.4969 C.3       10 UNK         0.0237 
     61 CB         33.1547   -1.7837  -12.7311 C.3       10 UNK        -0.1985 
     62 C          34.2548   -1.3671  -10.4541 C.2       10 UNK         0.4970 
     63 O          35.2702   -1.9542  -10.8335 O.2       10 UNK        -0.4914 
     64 N          33.9879   -1.1178   -9.1686 N.am      11 UNK        -0.4285 
     65 CA         34.8981   -1.3773   -8.0457 C.3       11 UNK         0.1007 
     66 C          36.1393   -0.4392   -8.0354 C.2       11 UNK         0.5703 
     67 N          37.2145   -0.8460   -7.3735 N.am      11 UNK        -0.7361 
     68 O          36.1338    0.6556   -8.5969 O.2       11 UNK        -0.4986 
     69 C69        34.1408   -1.3659   -6.6903 C.3       12 UNK        -0.0947 
     70 S70        33.0867    0.1076   -6.4533 S.3       12 UNK        -0.2240 
     71 C71        31.4394   -0.6542   -6.3463 C.3       12 UNK         0.0194 
     72 H72        26.9022   -2.8330    2.7091 H         1 UNK         0.0906 
     73 H73        27.7786   -4.2939    2.2465 H         1 UNK         0.0906 
     74 H74        28.6595   -2.7936    2.5419 H         1 UNK         0.0906 
     75 H75        27.5466   -4.7418    0.0650 H         1 UNK         0.3140 
     76 H76        28.0575   -2.7438   -1.9612 H         1 UNK         0.1085 
     77 H77        28.0078   -4.6518   -3.5357 H         1 UNK         0.0836 
     78 H78        27.3707   -5.6978   -2.2993 H         1 UNK         0.0836 
     79 H79        30.3330   -5.1214   -4.2618 H         1 UNK         0.0731 
     80 H80        31.7296   -5.0412   -3.2183 H         1 UNK         0.0731 
     81 H81        31.2015   -3.2847   -5.6195 H         1 UNK         0.1312 
     82 H82        31.0868    0.6881   -4.0317 H         1 UNK         0.1406 
     83 H83        30.4081   -2.6521   -1.4458 H         1 UNK         0.1631 
     84 H84        31.3211    0.4729   -1.0854 H         1 UNK         0.0717 
     85 H85        29.9276   -0.4787   -0.6286 H         1 UNK         0.0717 
     86 H86        27.8683   -0.4473   -2.3121 H         1 UNK         0.0934 
     87 H87        26.9104    0.9831   -2.1248 H         1 UNK         0.0934 
     88 H88        28.7537    0.7384   -4.5460 H         1 UNK         0.0739 
     89 H89        26.3316   -0.8469   -4.2301 H         1 UNK         0.3093 
     90 H90        26.2039   -1.8043   -7.6182 H         1 UNK         0.0818 
     91 H91        28.0737   -3.2824   -6.8154 H         1 UNK         0.0819 
     92 H92        26.5276   -4.1174   -6.7986 H         1 UNK         0.0819 
     93 H93        27.2312   -3.5161   -5.2993 H         1 UNK         0.0819 
     94 H94        24.8986   -2.7341   -5.2129 H         1 UNK         0.3041 
     95 H95        22.3704   -0.2112   -5.1794 H         1 UNK         0.0784 
     96 H96        21.5851   -1.7796   -6.9659 H         1 UNK         0.0793 
     97 H97        22.1487   -3.1515   -6.0214 H         1 UNK         0.0793 
     98 H98        20.8361   -2.1374   -5.4196 H         1 UNK         0.0793 
     99 H99        22.5458   -2.5211   -3.6097 H         1 UNK         0.3024 
    100 H100       23.8461   -1.0097   -0.8801 H         1 UNK         0.1171 
    101 H101       23.0457   -3.2859   -0.3342 H         1 UNK         0.0786 
    102 H102       21.9318   -2.5193   -1.4465 H         1 UNK         0.0786 
    103 H103       23.0533   -3.7515   -2.0276 H         1 UNK         0.0786 
    104 H104       25.8615   -1.9335   -0.6301 H         1 UNK         0.2977 
    105 H105       25.2391    1.2813   -4.3062 H         1 UNK         0.3127 
    106 H106       25.2588    4.0943   -4.6030 H         1 UNK         0.0770 
    107 H107       23.1215    2.0782   -5.4806 H         1 UNK         0.0814 
    108 H108       22.8744    3.8004   -5.2372 H         1 UNK         0.0814 
    109 H109       23.2713    2.7737   -3.8674 H         1 UNK         0.0814 
    110 H110       25.1063    1.5188   -7.1161 H         1 UNK         0.2983 
    111 H111       25.0699    3.3567   -9.3407 H         1 UNK         0.0947 
    112 H112       25.3725    1.2679  -10.6713 H         1 UNK         0.0806 
    113 H113       24.1199    1.0536   -9.4589 H         1 UNK         0.0806 
    114 H114       25.7216    0.3616   -9.2052 H         1 UNK         0.0806 
    115 H115       27.6255    2.1247   -7.3661 H         1 UNK         0.3000 
    116 H116       29.8359    2.1086   -7.3650 H         1 UNK         0.0850 
    117 H117       31.1290    3.8703   -8.5177 H         1 UNK         0.0810 
    118 H118       29.7033    4.5650   -7.7612 H         1 UNK         0.0810 
    119 H119       29.7422    4.3026   -9.5044 H         1 UNK         0.0810 
    120 H120       28.9440    0.0014   -8.3924 H         1 UNK         0.3040 
    121 H121       29.2410   -0.5069  -11.1643 H         1 UNK         0.0766 
    122 H122       27.5835   -1.6258   -9.7123 H         1 UNK         0.0812 
    123 H123       28.8760   -2.4286   -8.8188 H         1 UNK         0.0812 
    124 H124       28.5959   -2.8176  -10.5101 H         1 UNK         0.0812 
    125 H125       31.5701    0.3894  -11.0626 H         1 UNK         0.3205 
    126 H126       33.6265    0.1013  -11.8365 H         1 UNK         0.0754 
    127 H127       34.1260   -1.8802  -13.2180 H         1 UNK         0.0769 
    128 H128       32.4616   -1.3915  -13.4755 H         1 UNK         0.0769 
    129 H129       32.8250   -2.7876  -12.4615 H         1 UNK         0.0769 
    130 H130       33.1497   -0.6062   -8.9402 H         1 UNK         0.2981 
    131 H131       35.2841   -2.3890   -8.1865 H         1 UNK         0.0541 
    132 H132       38.0266   -0.2495   -7.3463 H         1 UNK         0.3459 
    133 H133       37.2321   -1.7372   -6.9024 H         1 UNK         0.3459 
    134 H134       33.5223   -2.2618   -6.6241 H         1 UNK         0.0612 
    135 H135       34.8334   -1.4352   -5.8497 H         1 UNK         0.0612 
    136 H136       30.6910    0.1120   -6.5415 H         1 UNK         0.0624 
    137 H137       31.3186   -1.4051   -7.1290 H         1 UNK         0.0624 
@<TRIPOS>BOND
     1    1    2 1    
     2    1   72 1    
     3    1   73 1    
     4    1   74 1    
     5    2    3 2    
     6    2    4 am   BACKBONE|DICT|INTERRES
     7    4    5 1    
     8    4   75 1    
     9    5    6 1    
    10    5   35 1    
    11    5   76 1    
    12    6    7 1    
    13    6   77 1    
    14    6   78 1    
    15    7    8 1    
    16    8    9 1    
    17    8   79 1    
    18    8   80 1    
    19    9   10 ar   
    20    9   14 ar   
    21   10   11 ar   
    22   10   81 1    
    23   11   12 ar   
    24   11   71 1    
    25   12   13 ar   
    26   12   82 1    
    27   13   14 ar   
    28   13   15 1    
    29   14   83 1    
    30   15   16 1    
    31   15   84 1    
    32   15   85 1    
    33   16   17 1    
    34   17   18 1    
    35   17   86 1    
    36   17   87 1    
    37   18   19 1    
    38   18   37 1    
    39   18   88 1    
    40   19   20 am   BACKBONE|DICT|INTERRES
    41   19   89 1    
    42   20   21 2    
    43   20   22 1    
    44   22   23 1    
    45   22   24 1    
    46   22   90 1    
    47   23   91 1    
    48   23   92 1    
    49   23   93 1    
    50   24   25 am   BACKBONE|DICT|INTERRES
    51   24   94 1    
    52   25   26 2    
    53   25   27 1    
    54   27   28 1    
    55   27   29 1    
    56   27   95 1    
    57   28   96 1    
    58   28   97 1    
    59   28   98 1    
    60   29   30 am   BACKBONE|DICT|INTERRES
    61   29   99 1    
    62   30   31 2    
    63   30   32 1    
    64   32   33 1    
    65   32   34 1    
    66   32  100 1    
    67   33  101 1    
    68   33  102 1    
    69   33  103 1    
    70   34   35 am   BACKBONE|DICT|INTERRES
    71   34  104 1    
    72   35   36 2    
    73   37   38 2    
    74   37   39 am   BACKBONE|DICT|INTERRES
    75   39   40 1    
    76   39  105 1    
    77   40   41 1    
    78   40   42 1    
    79   40  106 1    
    80   41  107 1    
    81   41  108 1    
    82   41  109 1    
    83   42   43 2    
    84   42   44 am   BACKBONE|DICT|INTERRES
    85   44   45 1    
    86   44  110 1    
    87   45   46 1    
    88   45   47 1    
    89   45  111 1    
    90   46  112 1    
    91   46  113 1    
    92   46  114 1    
    93   47   48 2    
    94   47   49 am   BACKBONE|DICT|INTERRES
    95   49   50 1    
    96   49  115 1    
    97   50   51 1    
    98   50   52 1    
    99   50  116 1    
   100   51  117 1    
   101   51  118 1    
   102   51  119 1    
   103   52   53 2    
   104   52   54 am   BACKBONE|DICT|INTERRES
   105   54   55 1    
   106   54  120 1    
   107   55   56 1    
   108   55   57 1    
   109   55  121 1    
   110   56  122 1    
   111   56  123 1    
   112   56  124 1    
   113   57   58 2    
   114   57   59 am   BACKBONE|DICT|INTERRES
   115   59   60 1    
   116   59  125 1    
   117   60   61 1    
   118   60   62 1    
   119   60  126 1    
   120   61  127 1    
   121   61  128 1    
   122   61  129 1    
   123   62   63 2    
   124   62   64 am   BACKBONE|DICT|INTERRES
   125   64   65 1    
   126   64  130 1    
   127   65   66 1    
   128   65   69 1    
   129   65  131 1    
   130   66   67 am   BACKBONE|DICT|INTERRES
   131   66   68 2    
   132   67  132 1    
   133   67  133 1    
   134   69   70 1    
   135   69  134 1    
   136   69  135 1    
   137   70   71 1    
   138   71  136 1    
   139   71  137 1    
@<TRIPOS>SUBSTRUCTURE
     1 UNK         1 GROUP             0       ****    0 ROOT    
