@<TRIPOS>MOLECULE
3R137
137   139    1
SMALL
USER_CHARGES


@<TRIPOS>ATOM
      1 CA         27.2313   -0.4654    4.1666 C.3       0 UNK        -0.2020 
      2 C          27.7628   -0.9622    2.8304 C.2       0 UNK         0.4855 
      3 O          28.9333   -0.7438    2.5173 O.2       0 UNK        -0.5197 
      4 N          26.9129   -1.6245    2.0396 N.am      1 UNK        -0.4892 
      5 CA         27.2106   -2.1319    0.7008 C.3       1 UNK         0.0835 
      6 C6         28.1010   -3.4093    0.7247 C.3       12 UNK        -0.0855 
      7 S7         29.0116   -3.8664   -0.8030 S.3       12 UNK        -0.2931 
      8 C8         29.0984   -2.3620   -1.8392 C.3       12 UNK         0.0378 
      9 C9         29.7451   -2.6453   -3.1884 C.ar      12 UNK        -0.0802 
     10 C10        30.8570   -1.9117   -3.6110 C.ar      12 UNK        -0.0944 
     11 C11        31.4502   -2.1699   -4.8512 C.ar      12 UNK        -0.0787 
     12 C12        30.9202   -3.1691   -5.6757 C.ar      12 UNK        -0.0862 
     13 C13        29.8084   -3.9115   -5.2627 C.ar      12 UNK        -0.0733 
     14 C14        29.2233   -3.6371   -4.0237 C.ar      12 UNK        -0.0832 
     15 C15        29.2704   -5.0512   -6.1195 C.3       12 UNK         0.0240 
     16 S16        28.2360   -4.4863   -7.5072 S.3       12 UNK        -0.2522 
     17 C17        26.7959   -3.7390   -6.6651 C.3       12 UNK        -0.0967 
     18 CA         26.4057   -2.3777   -7.2869 C.3       5 UNK         0.0660 
     19 N          25.0794   -1.9294   -6.8615 N.am      5 UNK        -0.4015 
     20 C          24.3705   -0.9804   -7.4901 C.2       4 UNK         0.4946 
     21 O          24.7427   -0.4124   -8.5166 O.2       4 UNK        -0.5353 
     22 CA         23.0399   -0.5653   -6.8415 C.3       4 UNK         0.0277 
     23 CB         21.9265   -1.5655   -7.1916 C.3       4 UNK        -0.1981 
     24 N          23.1416   -0.4244   -5.3871 N.am      4 UNK        -0.4209 
     25 C          23.8996    0.4949   -4.7724 C.2       3 UNK         0.4942 
     26 O          24.5578    1.3481   -5.3656 O.2       3 UNK        -0.5208 
     27 CA         23.9656    0.4321   -3.2379 C.3       3 UNK         0.0250 
     28 CB         22.8118    1.2363   -2.6178 C.3       3 UNK        -0.1990 
     29 N          23.9758   -0.9232   -2.6743 N.am      3 UNK        -0.4232 
     30 C          24.8499   -1.8916   -2.9818 C.2       2 UNK         0.4993 
     31 O          25.7057   -1.7991   -3.8652 O.2       2 UNK        -0.5286 
     32 CA         24.7989   -3.1604   -2.1175 C.3       2 UNK         0.0209 
     33 CB         24.9693   -4.4312   -2.9687 C.3       2 UNK        -0.1931 
     34 N          25.8720   -3.0955   -1.1272 N.am      2 UNK        -0.4546 
     35 C          25.8734   -2.2980   -0.0519 C.2       1 UNK         0.5154 
     36 O          24.8731   -1.6859    0.3350 O.2       1 UNK        -0.5181 
     37 C          27.4597   -1.2850   -7.0338 C.2       5 UNK         0.5014 
     38 O          28.2480   -1.0045   -7.9339 O.2       5 UNK        -0.5248 
     39 N          27.4154   -0.6464   -5.8548 N.am      6 UNK        -0.4434 
     40 CA         28.3006    0.4616   -5.4815 C.3       6 UNK         0.0363 
     41 CB         28.0196    0.8786   -4.0303 C.3       6 UNK        -0.1936 
     42 C          28.2028    1.6791   -6.4219 C.2       6 UNK         0.5081 
     43 O          29.2077    2.3542   -6.6428 O.2       6 UNK        -0.5248 
     44 N          27.0033    1.9384   -6.9602 N.am      7 UNK        -0.4718 
     45 CA         26.7610    2.9590   -7.9787 C.3       7 UNK         0.0273 
     46 CB         25.2646    3.3109   -8.0022 C.3       7 UNK        -0.1935 
     47 C          27.2363    2.5269   -9.3771 C.2       7 UNK         0.5018 
     48 O          27.8012    3.3511  -10.0974 O.2       7 UNK        -0.5186 
     49 N          26.9666    1.2687   -9.7538 N.am      8 UNK        -0.4240 
     50 CA         27.2488    0.7305  -11.0867 C.3       8 UNK         0.0235 
     51 CB         26.3813   -0.5150  -11.3320 C.3       8 UNK        -0.2000 
     52 C          28.7309    0.4022  -11.3287 C.2       8 UNK         0.4941 
     53 O          29.2360    0.6869  -12.4164 O.2       8 UNK        -0.5273 
     54 N          29.3881   -0.2298  -10.3485 N.am      9 UNK        -0.4262 
     55 CA         30.7703   -0.6987  -10.4488 C.3       9 UNK         0.0264 
     56 CB         31.0198   -1.7686   -9.3720 C.3       9 UNK        -0.1955 
     57 C          31.7852    0.4460  -10.3121 C.2       9 UNK         0.5031 
     58 O          31.5210    1.4440   -9.6369 O.2       9 UNK        -0.5390 
     59 N          32.9639    0.2522  -10.9155 N.am      10 UNK        -0.4204 
     60 CA         34.1185    1.1442  -10.8046 C.3       10 UNK         0.0237 
     61 CB         35.0013    0.9798  -12.0565 C.3       10 UNK        -0.1985 
     62 C          34.8826    0.8654   -9.4973 C.2       10 UNK         0.4970 
     63 O          35.9900    0.3258   -9.5329 O.2       10 UNK        -0.4914 
     64 N          34.2547    1.2039   -8.3650 N.am      11 UNK        -0.4285 
     65 CA         34.7849    0.9917   -7.0074 C.3       11 UNK         0.1007 
     66 C          36.0428    1.8378   -6.6493 C.2       11 UNK         0.5703 
     67 N          36.3633    2.8995   -7.3800 N.am      11 UNK        -0.7361 
     68 O          36.7426    1.5197   -5.6906 O.2       11 UNK        -0.4986 
     69 C69        33.6904    1.1723   -5.9232 C.3       12 UNK        -0.0947 
     70 S70        32.2180    0.1267   -6.1772 S.3       12 UNK        -0.2240 
     71 C71        32.6803   -1.3819   -5.2760 C.3       12 UNK         0.0194 
     72 H72        27.8086   -0.8971    4.9837 H         1 UNK         0.0906 
     73 H73        27.3168    0.6194    4.2246 H         1 UNK         0.0906 
     74 H74        26.1846   -0.7315    4.3139 H         1 UNK         0.0906 
     75 H75        25.9369   -1.7136    2.2978 H         1 UNK         0.3140 
     76 H76        27.7442   -1.3280    0.1932 H         1 UNK         0.1085 
     77 H77        28.8694   -3.2960    1.4908 H         1 UNK         0.0836 
     78 H78        27.5142   -4.2718    1.0467 H         1 UNK         0.0836 
     79 H79        28.1044   -1.9632   -2.0333 H         1 UNK         0.0731 
     80 H80        29.6514   -1.5912   -1.2997 H         1 UNK         0.0731 
     81 H81        31.2666   -1.1393   -2.9745 H         1 UNK         0.1312 
     82 H82        31.3792   -3.3780   -6.6324 H         1 UNK         0.1406 
     83 H83        28.3701   -4.2129   -3.6940 H         1 UNK         0.1631 
     84 H84        28.6962   -5.7522   -5.5115 H         1 UNK         0.0717 
     85 H85        30.1086   -5.6214   -6.5224 H         1 UNK         0.0717 
     86 H86        25.9668   -4.4418   -6.7603 H         1 UNK         0.0934 
     87 H87        26.9765   -3.6357   -5.5958 H         1 UNK         0.0934 
     88 H88        26.3517   -2.5220   -8.3687 H         1 UNK         0.0739 
     89 H89        24.7465   -2.2801   -5.9749 H         1 UNK         0.3093 
     90 H90        22.7643    0.4086   -7.2525 H         1 UNK         0.0818 
     91 H91        20.9605   -1.2324   -6.8116 H         1 UNK         0.0819 
     92 H92        21.8268   -1.6731   -8.2728 H         1 UNK         0.0819 
     93 H93        22.1249   -2.5569   -6.7826 H         1 UNK         0.0819 
     94 H94        22.6266   -1.0813   -4.8191 H         1 UNK         0.3041 
     95 H95        24.9017    0.9053   -2.9372 H         1 UNK         0.0784 
     96 H96        22.7947    2.2564   -3.0047 H         1 UNK         0.0793 
     97 H97        21.8419    0.7881   -2.8370 H         1 UNK         0.0793 
     98 H98        22.9134    1.3057   -1.5345 H         1 UNK         0.0793 
     99 H99        23.3443   -1.0840   -1.9019 H         1 UNK         0.3024 
    100 H100       23.8349   -3.2152   -1.6063 H         1 UNK         0.1171 
    101 H101       24.1953   -4.4945   -3.7346 H         1 UNK         0.0786 
    102 H102       24.8919   -5.3294   -2.3559 H         1 UNK         0.0786 
    103 H103       25.9334   -4.4579   -3.4766 H         1 UNK         0.0786 
    104 H104       26.7329   -3.5732   -1.3609 H         1 UNK         0.2977 
    105 H105       26.7493   -0.9634   -5.1525 H         1 UNK         0.3127 
    106 H106       29.3225    0.0830   -5.5366 H         1 UNK         0.0770 
    107 H107       27.0204    1.2992   -3.9219 H         1 UNK         0.0814 
    108 H108       28.7309    1.6369   -3.7010 H         1 UNK         0.0814 
    109 H109       28.1062    0.0338   -3.3492 H         1 UNK         0.0814 
    110 H110       26.2032    1.3971   -6.6500 H         1 UNK         0.2983 
    111 H111       27.3146    3.8599   -7.7043 H         1 UNK         0.0947 
    112 H112       25.0543    4.0781   -8.7485 H         1 UNK         0.0806 
    113 H113       24.9344    3.6967   -7.0375 H         1 UNK         0.0806 
    114 H114       24.6487    2.4428   -8.2411 H         1 UNK         0.0806 
    115 H115       26.4694    0.6602   -9.1122 H         1 UNK         0.3000 
    116 H116       26.9586    1.4846  -11.8218 H         1 UNK         0.0850 
    117 H117       26.5622   -0.9301  -12.3244 H         1 UNK         0.0810 
    118 H118       25.3194   -0.2764  -11.2692 H         1 UNK         0.0810 
    119 H119       26.5905   -1.3006  -10.6048 H         1 UNK         0.0810 
    120 H120       28.9138   -0.4119   -9.4629 H         1 UNK         0.3040 
    121 H121       30.9007   -1.1630  -11.4288 H         1 UNK         0.0766 
    122 H122       32.0334   -2.1663   -9.4319 H         1 UNK         0.0812 
    123 H123       30.3327   -2.6084   -9.4790 H         1 UNK         0.0812 
    124 H124       30.8881   -1.3625   -8.3688 H         1 UNK         0.0812 
    125 H125       33.1144   -0.6118  -11.4171 H         1 UNK         0.3205 
    126 H126       33.7751    2.1807  -10.7748 H         1 UNK         0.0754 
    127 H127       35.8706    1.6372  -12.0094 H         1 UNK         0.0769 
    128 H128       34.4530    1.2355  -12.9635 H         1 UNK         0.0769 
    129 H129       35.3698   -0.0413  -12.1647 H         1 UNK         0.0769 
    130 H130       33.3152    1.5791   -8.4295 H         1 UNK         0.2981 
    131 H131       35.1108   -0.0492   -6.9631 H         1 UNK         0.0541 
    132 H132       37.1819    3.4358   -7.1392 H         1 UNK         0.3459 
    133 H133       35.7940    3.1709   -8.1650 H         1 UNK         0.3459 
    134 H134       33.3525    2.2100   -5.9067 H         1 UNK         0.0612 
    135 H135       34.0927    0.9755   -4.9279 H         1 UNK         0.0612 
    136 H136       33.3261   -1.9924   -5.9087 H         1 UNK         0.0624 
    137 H137       33.2676   -1.1248   -4.3935 H         1 UNK         0.0624 
@<TRIPOS>BOND
     1    1    2 1    
     2    1   72 1    
     3    1   73 1    
     4    1   74 1    
     5    2    3 2    
     6    2    4 am   BACKBONE|DICT|INTERRES
     7    4    5 1    
     8    4   75 1    
     9    5    6 1    
    10    5   35 1    
    11    5   76 1    
    12    6    7 1    
    13    6   77 1    
    14    6   78 1    
    15    7    8 1    
    16    8    9 1    
    17    8   79 1    
    18    8   80 1    
    19    9   10 ar   
    20    9   14 ar   
    21   10   11 ar   
    22   10   81 1    
    23   11   12 ar   
    24   11   71 1    
    25   12   13 ar   
    26   12   82 1    
    27   13   14 ar   
    28   13   15 1    
    29   14   83 1    
    30   15   16 1    
    31   15   84 1    
    32   15   85 1    
    33   16   17 1    
    34   17   18 1    
    35   17   86 1    
    36   17   87 1    
    37   18   19 1    
    38   18   37 1    
    39   18   88 1    
    40   19   20 am   BACKBONE|DICT|INTERRES
    41   19   89 1    
    42   20   21 2    
    43   20   22 1    
    44   22   23 1    
    45   22   24 1    
    46   22   90 1    
    47   23   91 1    
    48   23   92 1    
    49   23   93 1    
    50   24   25 am   BACKBONE|DICT|INTERRES
    51   24   94 1    
    52   25   26 2    
    53   25   27 1    
    54   27   28 1    
    55   27   29 1    
    56   27   95 1    
    57   28   96 1    
    58   28   97 1    
    59   28   98 1    
    60   29   30 am   BACKBONE|DICT|INTERRES
    61   29   99 1    
    62   30   31 2    
    63   30   32 1    
    64   32   33 1    
    65   32   34 1    
    66   32  100 1    
    67   33  101 1    
    68   33  102 1    
    69   33  103 1    
    70   34   35 am   BACKBONE|DICT|INTERRES
    71   34  104 1    
    72   35   36 2    
    73   37   38 2    
    74   37   39 am   BACKBONE|DICT|INTERRES
    75   39   40 1    
    76   39  105 1    
    77   40   41 1    
    78   40   42 1    
    79   40  106 1    
    80   41  107 1    
    81   41  108 1    
    82   41  109 1    
    83   42   43 2    
    84   42   44 am   BACKBONE|DICT|INTERRES
    85   44   45 1    
    86   44  110 1    
    87   45   46 1    
    88   45   47 1    
    89   45  111 1    
    90   46  112 1    
    91   46  113 1    
    92   46  114 1    
    93   47   48 2    
    94   47   49 am   BACKBONE|DICT|INTERRES
    95   49   50 1    
    96   49  115 1    
    97   50   51 1    
    98   50   52 1    
    99   50  116 1    
   100   51  117 1    
   101   51  118 1    
   102   51  119 1    
   103   52   53 2    
   104   52   54 am   BACKBONE|DICT|INTERRES
   105   54   55 1    
   106   54  120 1    
   107   55   56 1    
   108   55   57 1    
   109   55  121 1    
   110   56  122 1    
   111   56  123 1    
   112   56  124 1    
   113   57   58 2    
   114   57   59 am   BACKBONE|DICT|INTERRES
   115   59   60 1    
   116   59  125 1    
   117   60   61 1    
   118   60   62 1    
   119   60  126 1    
   120   61  127 1    
   121   61  128 1    
   122   61  129 1    
   123   62   63 2    
   124   62   64 am   BACKBONE|DICT|INTERRES
   125   64   65 1    
   126   64  130 1    
   127   65   66 1    
   128   65   69 1    
   129   65  131 1    
   130   66   67 am   BACKBONE|DICT|INTERRES
   131   66   68 2    
   132   67  132 1    
   133   67  133 1    
   134   69   70 1    
   135   69  134 1    
   136   69  135 1    
   137   70   71 1    
   138   71  136 1    
   139   71  137 1    
@<TRIPOS>SUBSTRUCTURE
     1 UNK         1 GROUP             0       ****    0 ROOT    
