@<TRIPOS>MOLECULE
3R137
137   139    1
SMALL
USER_CHARGES


@<TRIPOS>ATOM
      1 CA         28.5781   -6.1246    1.2107 C.3       0 UNK        -0.2020 
      2 C          28.3163   -4.6603    1.5302 C.2       0 UNK         0.4855 
      3 O          28.8665   -4.1381    2.5000 O.2       0 UNK        -0.5197 
      4 N          27.4818   -3.9972    0.7228 N.am      1 UNK        -0.4892 
      5 CA         27.0873   -2.5941    0.8909 C.3       1 UNK         0.0835 
      6 C6         28.2209   -1.5778    0.5596 C.3       12 UNK        -0.0855 
      7 S7         28.6432   -1.4256   -1.2137 S.3       12 UNK        -0.2931 
      8 C8         30.0003   -2.6193   -1.3765 C.3       12 UNK         0.0378 
      9 C9         30.2796   -2.9176   -2.8405 C.ar      12 UNK        -0.0802 
     10 C10        31.3032   -2.2486   -3.5146 C.ar      12 UNK        -0.0944 
     11 C11        31.5806   -2.5355   -4.8551 C.ar      12 UNK        -0.0787 
     12 C12        30.8227   -3.5087   -5.5199 C.ar      12 UNK        -0.0862 
     13 C13        29.8011   -4.1950   -4.8511 C.ar      12 UNK        -0.0733 
     14 C14        29.5294   -3.8851   -3.5147 C.ar      12 UNK        -0.0832 
     15 C15        29.0427   -5.3312   -5.5321 C.3       12 UNK         0.0240 
     16 S16        28.0330   -4.8077   -6.9549 S.3       12 UNK        -0.2522 
     17 C17        26.7688   -3.7391   -6.1825 C.3       12 UNK        -0.0967 
     18 CA         26.4860   -2.4778   -7.0358 C.3       5 UNK         0.0660 
     19 N          25.2703   -1.7732   -6.6221 N.am      5 UNK        -0.4015 
     20 C          24.6486   -0.8449   -7.3668 C.2       4 UNK         0.4946 
     21 O          25.0005   -0.5328   -8.5039 O.2       4 UNK        -0.5353 
     22 CA         23.4552   -0.1095   -6.7320 C.3       4 UNK         0.0277 
     23 CB         22.1573   -0.9054   -6.9420 C.3       4 UNK        -0.1981 
     24 N          23.6396    0.1625   -5.3055 N.am      4 UNK        -0.4209 
     25 C          24.5908    0.9614   -4.8002 C.2       3 UNK         0.4942 
     26 O          25.3725    1.6150   -5.4888 O.2       3 UNK        -0.5208 
     27 CA         24.7319    0.9941   -3.2683 C.3       3 UNK         0.0250 
     28 CB         23.8662    2.1149   -2.6718 C.3       3 UNK        -0.1990 
     29 N          24.4153   -0.2777   -2.6055 N.am      3 UNK        -0.4232 
     30 C          25.0058   -1.4505   -2.8733 C.2       2 UNK         0.4993 
     31 O          25.8595   -1.6065   -3.7500 O.2       2 UNK        -0.5286 
     32 CA         24.5785   -2.6519   -2.0209 C.3       2 UNK         0.0209 
     33 CB         24.3356   -3.8983   -2.8912 C.3       2 UNK        -0.1931 
     34 N          25.6434   -2.9329   -1.0646 N.am      2 UNK        -0.4546 
     35 C          25.7879   -2.3090    0.1145 C.2       1 UNK         0.5154 
     36 O          24.9466   -1.5447    0.5902 O.2       1 UNK        -0.5181 
     37 C          27.6833   -1.5145   -7.0514 C.2       5 UNK         0.5014 
     38 O          28.4162   -1.4848   -8.0400 O.2       5 UNK        -0.5248 
     39 N          27.8273   -0.7119   -5.9865 N.am      6 UNK        -0.4434 
     40 CA         28.8773    0.3006   -5.8726 C.3       6 UNK         0.0363 
     41 CB         28.8440    0.9437   -4.4797 C.3       6 UNK        -0.1936 
     42 C          28.8141    1.3648   -6.9815 C.2       6 UNK         0.5081 
     43 O          29.8534    1.7206   -7.5385 O.2       6 UNK        -0.5248 
     44 N          27.5956    1.8140   -7.3145 N.am      7 UNK        -0.4718 
     45 CA         27.3144    2.7215   -8.4272 C.3       7 UNK         0.0273 
     46 CB         25.8554    3.1984   -8.3506 C.3       7 UNK        -0.1935 
     47 C          27.6100    2.0971   -9.8008 C.2       7 UNK         0.5018 
     48 O          28.2159    2.7654  -10.6384 O.2       7 UNK        -0.5186 
     49 N          27.1988    0.8359  -10.0069 N.am      8 UNK        -0.4240 
     50 CA         27.4423    0.0784  -11.2396 C.3       8 UNK         0.0235 
     51 CB         26.6213   -1.2209  -11.2310 C.3       8 UNK        -0.2000 
     52 C          28.9313   -0.2234  -11.4740 C.2       8 UNK         0.4941 
     53 O          29.4061   -0.0794  -12.6014 O.2       8 UNK        -0.5273 
     54 N          29.6426   -0.6160  -10.4083 N.am      9 UNK        -0.4262 
     55 CA         31.0896   -0.8426  -10.4121 C.3       9 UNK         0.0264 
     56 CB         31.4816   -1.6079   -9.1380 C.3       9 UNK        -0.1955 
     57 C          31.9049    0.4580  -10.5193 C.2       9 UNK         0.5031 
     58 O          33.0378    0.4132  -11.0009 O.2       9 UNK        -0.5390 
     59 N          31.3253    1.5738  -10.0499 N.am      10 UNK        -0.4204 
     60 CA         31.9155    2.9111   -9.9230 C.3       10 UNK         0.0237 
     61 CB         32.2334    3.5146  -11.3076 C.3       10 UNK        -0.1985 
     62 C          33.1158    2.9322   -8.9559 C.2       10 UNK         0.4970 
     63 O          34.0749    3.6737   -9.1785 O.2       10 UNK        -0.4914 
     64 N          33.0410    2.1075   -7.9036 N.am      11 UNK        -0.4285 
     65 CA         34.0864    1.9437   -6.8832 C.3       11 UNK         0.1007 
     66 C          34.0659    3.0178   -5.7564 C.2       11 UNK         0.5703 
     67 N          33.0620    3.8843   -5.6805 N.am      11 UNK        -0.7361 
     68 O          34.9900    3.0783   -4.9485 O.2       11 UNK        -0.4986 
     69 C69        34.1161    0.4931   -6.3317 C.3       12 UNK        -0.0947 
     70 S70        32.5548   -0.0223   -5.5454 S.3       12 UNK        -0.2240 
     71 C71        32.7376   -1.8336   -5.5571 C.3       12 UNK         0.0194 
     72 H72        28.2767   -6.7513    2.0496 H         1 UNK         0.0906 
     73 H73        28.0327   -6.4554    0.3272 H         1 UNK         0.0906 
     74 H74        29.6410   -6.2842    1.0312 H         1 UNK         0.0906 
     75 H75        26.9967   -4.5009   -0.0059 H         1 UNK         0.3140 
     76 H76        26.8330   -2.4643    1.9457 H         1 UNK         0.1085 
     77 H77        27.9224   -0.5863    0.9046 H         1 UNK         0.0836 
     78 H78        29.1236   -1.8135    1.1248 H         1 UNK         0.0836 
     79 H79        30.8908   -2.2242   -0.8852 H         1 UNK         0.0731 
     80 H80        29.7487   -3.5452   -0.8596 H         1 UNK         0.0731 
     81 H81        31.8918   -1.5055   -2.9940 H         1 UNK         0.1312 
     82 H82        31.0410   -3.7531   -6.5506 H         1 UNK         0.1406 
     83 H83        28.7474   -4.4135   -2.9871 H         1 UNK         0.1631 
     84 H84        29.7653   -6.0716   -5.8777 H         1 UNK         0.0717 
     85 H85        28.3980   -5.8507   -4.8213 H         1 UNK         0.0717 
     86 H86        25.8583   -4.3308   -6.0778 H         1 UNK         0.0934 
     87 H87        27.0711   -3.4682   -5.1697 H         1 UNK         0.0934 
     88 H88        26.3224   -2.8072   -8.0646 H         1 UNK         0.0739 
     89 H89        24.9952   -1.8928   -5.6555 H         1 UNK         0.3093 
     90 H90        23.3530    0.8508   -7.2421 H         1 UNK         0.0818 
     91 H91        21.2903   -0.3549   -6.5760 H         1 UNK         0.0819 
     92 H92        21.9893   -1.1021   -8.0019 H         1 UNK         0.0819 
     93 H93        22.1842   -1.8693   -6.4322 H         1 UNK         0.0819 
     94 H94        23.0343   -0.3258   -4.6619 H         1 UNK         0.3041 
     95 H95        25.7774    1.2175   -3.0468 H         1 UNK         0.0784 
     96 H96        24.0993    3.0754   -3.1341 H         1 UNK         0.0793 
     97 H97        22.8022    1.9295   -2.8241 H         1 UNK         0.0793 
     98 H98        24.0395    2.2236   -1.6009 H         1 UNK         0.0793 
     99 H99        23.7477   -0.2346   -1.8481 H         1 UNK         0.3024 
    100 H100       23.6512   -2.4168   -1.4927 H         1 UNK         0.1171 
    101 H101       23.9978   -4.7404   -2.2869 H         1 UNK         0.0786 
    102 H102       23.5655   -3.7081   -3.6398 H         1 UNK         0.0786 
    103 H103       25.2365   -4.2103   -3.4210 H         1 UNK         0.0786 
    104 H104       26.4404   -3.4267   -1.4367 H         1 UNK         0.2977 
    105 H105       27.1905   -0.8182   -5.2035 H         1 UNK         0.3127 
    106 H106       29.8224   -0.2289   -5.9830 H         1 UNK         0.0770 
    107 H107       27.9072    1.4703   -4.2983 H         1 UNK         0.0814 
    108 H108       29.6546    1.6648   -4.3674 H         1 UNK         0.0814 
    109 H109       28.9688    0.1939   -3.6991 H         1 UNK         0.0814 
    110 H110       26.7994    1.5216   -6.7526 H         1 UNK         0.2983 
    111 H111       27.9636    3.5927   -8.3152 H         1 UNK         0.0947 
    112 H112       25.6259    3.8891   -9.1630 H         1 UNK         0.0806 
    113 H113       25.6591    3.7215   -7.4144 H         1 UNK         0.0806 
    114 H114       25.1545    2.3657   -8.4198 H         1 UNK         0.0806 
    115 H115       26.6656    0.3654   -9.2818 H         1 UNK         0.3000 
    116 H116       27.0964    0.6896  -12.0760 H         1 UNK         0.0850 
    117 H117       26.7889   -1.7963  -12.1424 H         1 UNK         0.0810 
    118 H118       25.5528   -1.0132  -11.1715 H         1 UNK         0.0810 
    119 H119       26.8849   -1.8596  -10.3873 H         1 UNK         0.0810 
    120 H120       29.1564   -0.7856   -9.5268 H         1 UNK         0.3040 
    121 H121       31.3370   -1.4624  -11.2764 H         1 UNK         0.0766 
    122 H122       30.9712   -2.5694   -9.0794 H         1 UNK         0.0812 
    123 H123       31.2293   -1.0435   -8.2391 H         1 UNK         0.0812 
    124 H124       32.5541   -1.8051   -9.1128 H         1 UNK         0.0812 
    125 H125       30.4171    1.4733   -9.6108 H         1 UNK         0.3205 
    126 H126       31.1466    3.5334   -9.4626 H         1 UNK         0.0754 
    127 H127       32.5366    4.5585  -11.2188 H         1 UNK         0.0769 
    128 H128       31.3600    3.4859  -11.9595 H         1 UNK         0.0769 
    129 H129       33.0434    2.9824  -11.8070 H         1 UNK         0.0769 
    130 H130       32.1889    1.5821   -7.7552 H         1 UNK         0.2981 
    131 H131       35.0460    2.0900   -7.3826 H         1 UNK         0.0541 
    132 H132       32.2969    3.8346   -6.3335 H         1 UNK         0.3459 
    133 H133       33.0634    4.5802   -4.9519 H         1 UNK         0.3459 
    134 H134       34.9280    0.3670   -5.6132 H         1 UNK         0.0612 
    135 H135       34.3325   -0.1959   -7.1497 H         1 UNK         0.0612 
    136 H136       33.6683   -2.1005   -5.0547 H         1 UNK         0.0624 
    137 H137       32.8307   -2.1769   -6.5877 H         1 UNK         0.0624 
@<TRIPOS>BOND
     1    1    2 1    
     2    1   72 1    
     3    1   73 1    
     4    1   74 1    
     5    2    3 2    
     6    2    4 am   BACKBONE|DICT|INTERRES
     7    4    5 1    
     8    4   75 1    
     9    5    6 1    
    10    5   35 1    
    11    5   76 1    
    12    6    7 1    
    13    6   77 1    
    14    6   78 1    
    15    7    8 1    
    16    8    9 1    
    17    8   79 1    
    18    8   80 1    
    19    9   10 ar   
    20    9   14 ar   
    21   10   11 ar   
    22   10   81 1    
    23   11   12 ar   
    24   11   71 1    
    25   12   13 ar   
    26   12   82 1    
    27   13   14 ar   
    28   13   15 1    
    29   14   83 1    
    30   15   16 1    
    31   15   84 1    
    32   15   85 1    
    33   16   17 1    
    34   17   18 1    
    35   17   86 1    
    36   17   87 1    
    37   18   19 1    
    38   18   37 1    
    39   18   88 1    
    40   19   20 am   BACKBONE|DICT|INTERRES
    41   19   89 1    
    42   20   21 2    
    43   20   22 1    
    44   22   23 1    
    45   22   24 1    
    46   22   90 1    
    47   23   91 1    
    48   23   92 1    
    49   23   93 1    
    50   24   25 am   BACKBONE|DICT|INTERRES
    51   24   94 1    
    52   25   26 2    
    53   25   27 1    
    54   27   28 1    
    55   27   29 1    
    56   27   95 1    
    57   28   96 1    
    58   28   97 1    
    59   28   98 1    
    60   29   30 am   BACKBONE|DICT|INTERRES
    61   29   99 1    
    62   30   31 2    
    63   30   32 1    
    64   32   33 1    
    65   32   34 1    
    66   32  100 1    
    67   33  101 1    
    68   33  102 1    
    69   33  103 1    
    70   34   35 am   BACKBONE|DICT|INTERRES
    71   34  104 1    
    72   35   36 2    
    73   37   38 2    
    74   37   39 am   BACKBONE|DICT|INTERRES
    75   39   40 1    
    76   39  105 1    
    77   40   41 1    
    78   40   42 1    
    79   40  106 1    
    80   41  107 1    
    81   41  108 1    
    82   41  109 1    
    83   42   43 2    
    84   42   44 am   BACKBONE|DICT|INTERRES
    85   44   45 1    
    86   44  110 1    
    87   45   46 1    
    88   45   47 1    
    89   45  111 1    
    90   46  112 1    
    91   46  113 1    
    92   46  114 1    
    93   47   48 2    
    94   47   49 am   BACKBONE|DICT|INTERRES
    95   49   50 1    
    96   49  115 1    
    97   50   51 1    
    98   50   52 1    
    99   50  116 1    
   100   51  117 1    
   101   51  118 1    
   102   51  119 1    
   103   52   53 2    
   104   52   54 am   BACKBONE|DICT|INTERRES
   105   54   55 1    
   106   54  120 1    
   107   55   56 1    
   108   55   57 1    
   109   55  121 1    
   110   56  122 1    
   111   56  123 1    
   112   56  124 1    
   113   57   58 2    
   114   57   59 am   BACKBONE|DICT|INTERRES
   115   59   60 1    
   116   59  125 1    
   117   60   61 1    
   118   60   62 1    
   119   60  126 1    
   120   61  127 1    
   121   61  128 1    
   122   61  129 1    
   123   62   63 2    
   124   62   64 am   BACKBONE|DICT|INTERRES
   125   64   65 1    
   126   64  130 1    
   127   65   66 1    
   128   65   69 1    
   129   65  131 1    
   130   66   67 am   BACKBONE|DICT|INTERRES
   131   66   68 2    
   132   67  132 1    
   133   67  133 1    
   134   69   70 1    
   135   69  134 1    
   136   69  135 1    
   137   70   71 1    
   138   71  136 1    
   139   71  137 1    
@<TRIPOS>SUBSTRUCTURE
     1 UNK         1 GROUP             0       ****    0 ROOT    
