@<TRIPOS>MOLECULE
3R137
137   139    1
SMALL
USER_CHARGES


@<TRIPOS>ATOM
      1 CA         27.3061   -3.3206   -3.9579 C.3       0 UNK        -0.2020 
      2 C          27.2542   -3.9595   -2.5806 C.2       0 UNK         0.4855 
      3 O          26.7794   -5.0881   -2.4448 O.2       0 UNK        -0.5197 
      4 N          27.7364   -3.2526   -1.5517 N.am      1 UNK        -0.4892 
      5 CA         27.6970   -3.6897   -0.1535 C.3       1 UNK         0.0835 
      6 C6         28.6053   -2.8266    0.7547 C.3       12 UNK        -0.0855 
      7 S7         30.3677   -3.0340    0.3280 S.3       12 UNK        -0.2931 
      8 C8         30.8690   -1.3382   -0.1058 C.3       12 UNK         0.0378 
      9 C9         30.2468   -0.8547   -1.4093 C.ar      12 UNK        -0.0802 
     10 C10        30.6551   -1.4016   -2.6297 C.ar      12 UNK        -0.0944 
     11 C11        30.1290   -0.9290   -3.8363 C.ar      12 UNK        -0.0787 
     12 C12        29.1900    0.1085   -3.8096 C.ar      12 UNK        -0.0862 
     13 C13        28.7672    0.6609   -2.5971 C.ar      12 UNK        -0.0733 
     14 C14        29.2947    0.1688   -1.3993 C.ar      12 UNK        -0.0832 
     15 C15        27.7743    1.8158   -2.5751 C.3       12 UNK         0.0240 
     16 S16        26.0917    1.2966   -3.0429 S.3       12 UNK        -0.2522 
     17 C17        26.0953    1.5508   -4.8519 C.3       12 UNK        -0.0967 
     18 CA         25.8229    0.2436   -5.6368 C.3       5 UNK         0.0660 
     19 N          24.4998   -0.2985   -5.3224 N.am      5 UNK        -0.4015 
     20 C          24.0581   -1.5126   -5.6664 C.2       4 UNK         0.4946 
     21 O          24.7087   -2.3305   -6.3220 O.2       4 UNK        -0.5353 
     22 CA         22.6427   -1.8798   -5.1857 C.3       4 UNK         0.0277 
     23 CB         21.6508   -1.8701   -6.3605 C.3       4 UNK        -0.1981 
     24 N          22.6182   -3.1933   -4.5370 N.am      4 UNK        -0.4209 
     25 C          23.2772   -3.4954   -3.4098 C.2       3 UNK         0.4942 
     26 O          23.9199   -2.6703   -2.7556 O.2       3 UNK        -0.5208 
     27 CA         23.2069   -4.9642   -2.9555 C.3       3 UNK         0.0250 
     28 CB         23.8399   -5.9022   -4.0004 C.3       3 UNK        -0.1990 
     29 N          23.9011   -5.1466   -1.6793 N.am      3 UNK        -0.4232 
     30 C          23.3364   -4.9960   -0.4725 C.2       2 UNK         0.4993 
     31 O          22.1358   -4.7752   -0.3043 O.2       2 UNK        -0.5286 
     32 CA         24.2466   -5.1271    0.7638 C.3       2 UNK         0.0209 
     33 CB         24.0805   -6.5139    1.4079 C.3       2 UNK        -0.1931 
     34 N          25.6622   -4.9116    0.4540 N.am      2 UNK        -0.4546 
     35 C          26.2383   -3.7069    0.3460 C.2       1 UNK         0.5154 
     36 O          25.6643   -2.6448    0.5956 O.2       1 UNK        -0.5181 
     37 C          25.9895    0.4924   -7.1489 C.2       5 UNK         0.5014 
     38 O          25.0354    0.9060   -7.8127 O.2       5 UNK        -0.5248 
     39 N          27.2182    0.2997   -7.6417 N.am      6 UNK        -0.4434 
     40 CA         27.6401    0.5981   -9.0108 C.3       6 UNK         0.0363 
     41 CB         27.7990   -0.7150   -9.7998 C.3       6 UNK        -0.1936 
     42 C          28.9292    1.4334   -8.9711 C.2       6 UNK         0.5081 
     43 O          29.8677    1.1676   -9.7225 O.2       6 UNK        -0.5248 
     44 N          28.9666    2.4287   -8.0718 N.am      7 UNK        -0.4718 
     45 CA         30.1345    3.2739   -7.7911 C.3       7 UNK         0.0273 
     46 CB         29.8045    4.2352   -6.6389 C.3       7 UNK        -0.1935 
     47 C          30.6593    4.0447   -9.0148 C.2       7 UNK         0.5018 
     48 O          31.8708    4.2189   -9.1449 O.2       7 UNK        -0.5186 
     49 N          29.7500    4.4231   -9.9244 N.am      8 UNK        -0.4240 
     50 CA         30.0545    5.0455  -11.2167 C.3       8 UNK         0.0235 
     51 CB         28.7420    5.4910  -11.8818 C.3       8 UNK        -0.2000 
     52 C          30.8634    4.1464  -12.1735 C.2       8 UNK         0.4941 
     53 O          31.5447    4.6756  -13.0521 O.2       8 UNK        -0.5273 
     54 N          30.7961    2.8204  -11.9834 N.am      9 UNK        -0.4262 
     55 CA         31.5802    1.8268  -12.7199 C.3       9 UNK         0.0264 
     56 CB         30.7035    0.5855  -12.9678 C.3       9 UNK        -0.1955 
     57 C          32.8819    1.4445  -11.9871 C.2       9 UNK         0.5031 
     58 O          33.5936    0.5668  -12.4779 O.2       9 UNK        -0.5390 
     59 N          33.1716    2.0881  -10.8422 N.am      10 UNK        -0.4204 
     60 CA         34.3122    1.8530   -9.9487 C.3       10 UNK         0.0237 
     61 CB         35.6403    2.2477  -10.6307 C.3       10 UNK        -0.1985 
     62 C          34.3187    0.4204   -9.3829 C.2       10 UNK         0.4970 
     63 O          35.3042   -0.3039   -9.5359 O.2       10 UNK        -0.4914 
     64 N          33.2003    0.0389   -8.7519 N.am      11 UNK        -0.4285 
     65 CA         32.9692   -1.2882   -8.1582 C.3       11 UNK         0.1007 
     66 C          33.9059   -1.6923   -6.9790 C.2       11 UNK         0.5703 
     67 N          34.6310   -0.7706   -6.3562 N.am      11 UNK        -0.7361 
     68 O          33.9771   -2.8682   -6.6300 O.2       11 UNK        -0.4986 
     69 C69        31.4718   -1.4866   -7.8055 C.3       12 UNK        -0.0947 
     70 S70        30.8727   -0.3735   -6.4849 S.3       12 UNK        -0.2240 
     71 C71        30.5599   -1.5740   -5.1507 C.3       12 UNK         0.0194 
     72 H72        27.5192   -2.2548   -3.8975 H         1 UNK         0.0906 
     73 H73        28.0733   -3.7981   -4.5659 H         1 UNK         0.0906 
     74 H74        26.3476   -3.4412   -4.4609 H         1 UNK         0.0906 
     75 H75        28.1288   -2.3345   -1.7106 H         1 UNK         0.3140 
     76 H76        28.0779   -4.7131   -0.1155 H         1 UNK         0.1085 
     77 H77        28.3213   -1.7741    0.7012 H         1 UNK         0.0836 
     78 H78        28.4867   -3.1185    1.8001 H         1 UNK         0.0836 
     79 H79        30.6235   -0.6679    0.7196 H         1 UNK         0.0731 
     80 H80        31.9553   -1.3106   -0.2030 H         1 UNK         0.0731 
     81 H81        31.3860   -2.1991   -2.6348 H         1 UNK         0.1312 
     82 H82        28.7906    0.4906   -4.7359 H         1 UNK         0.1406 
     83 H83        28.9816    0.6007   -0.4580 H         1 UNK         0.1631 
     84 H84        28.1235    2.6200   -3.2240 H         1 UNK         0.0717 
     85 H85        27.7242    2.2478   -1.5745 H         1 UNK         0.0717 
     86 H86        25.3375    2.3012   -5.0873 H         1 UNK         0.0934 
     87 H87        27.0452    1.9943   -5.1538 H         1 UNK         0.0934 
     88 H88        26.5576   -0.5053   -5.3346 H         1 UNK         0.0739 
     89 H89        23.8962    0.3072   -4.7868 H         1 UNK         0.3093 
     90 H90        22.3124   -1.1421   -4.4509 H         1 UNK         0.0818 
     91 H91        20.6345   -2.0798   -6.0262 H         1 UNK         0.0819 
     92 H92        21.6356   -0.8947   -6.8490 H         1 UNK         0.0819 
     93 H93        21.9159   -2.6085   -7.1185 H         1 UNK         0.0819 
     94 H94        22.1361   -3.9299   -5.0311 H         1 UNK         0.3041 
     95 H95        22.1550   -5.2344   -2.8398 H         1 UNK         0.0784 
     96 H96        23.8576   -6.9336   -3.6476 H         1 UNK         0.0793 
     97 H97        23.2781   -5.8949   -4.9349 H         1 UNK         0.0793 
     98 H98        24.8644   -5.6136   -4.2372 H         1 UNK         0.0793 
     99 H99        24.9101   -5.2439   -1.7397 H         1 UNK         0.3024 
    100 H100       23.9217   -4.3740    1.4861 H         1 UNK         0.1171 
    101 H101       24.3864   -7.3135    0.7319 H         1 UNK         0.0786 
    102 H102       23.0393   -6.6963    1.6780 H         1 UNK         0.0786 
    103 H103       24.6700   -6.6006    2.3209 H         1 UNK         0.0786 
    104 H104       26.1988   -5.7300    0.2010 H         1 UNK         0.2977 
    105 H105       27.9534   -0.0260   -7.0290 H         1 UNK         0.3127 
    106 H106       26.8927    1.2125   -9.5171 H         1 UNK         0.0770 
    107 H107       28.5497   -1.3663   -9.3523 H         1 UNK         0.0814 
    108 H108       28.1034   -0.5211  -10.8292 H         1 UNK         0.0814 
    109 H109       26.8596   -1.2664   -9.8392 H         1 UNK         0.0814 
    110 H110       28.1443    2.5936   -7.5105 H         1 UNK         0.2983 
    111 H111       30.9401    2.6145   -7.4613 H         1 UNK         0.0947 
    112 H112       30.6631    4.8638   -6.3976 H         1 UNK         0.0806 
    113 H113       29.5406    3.6912   -5.7316 H         1 UNK         0.0806 
    114 H114       28.9752    4.8981   -6.8887 H         1 UNK         0.0806 
    115 H115       28.7789    4.2250   -9.7311 H         1 UNK         0.3000 
    116 H116       30.6592    5.9337  -11.0209 H         1 UNK         0.0850 
    117 H117       28.0837    4.6450  -12.0837 H         1 UNK         0.0810 
    118 H118       28.1989    6.1993  -11.2558 H         1 UNK         0.0810 
    119 H119       28.9357    5.9870  -12.8342 H         1 UNK         0.0810 
    120 H120       30.2463    2.4538  -11.2118 H         1 UNK         0.3040 
    121 H121       31.8669    2.2322  -13.6924 H         1 UNK         0.0766 
    122 H122       29.7716    0.8495  -13.4677 H         1 UNK         0.0812 
    123 H123       30.4534    0.0731  -12.0385 H         1 UNK         0.0812 
    124 H124       31.2180   -0.1349  -13.6049 H         1 UNK         0.0812 
    125 H125       32.5253    2.8016  -10.5227 H         1 UNK         0.3205 
    126 H126       34.1754    2.5191   -9.0953 H         1 UNK         0.0754 
    127 H127       35.6121    3.2783  -10.9843 H         1 UNK         0.0769 
    128 H128       35.8686    1.6072  -11.4832 H         1 UNK         0.0769 
    129 H129       36.4748    2.1675   -9.9329 H         1 UNK         0.0769 
    130 H130       32.4255    0.6831   -8.6893 H         1 UNK         0.2981 
    131 H131       33.1949   -2.0038   -8.9510 H         1 UNK         0.0541 
    132 H132       34.5729    0.1959   -6.6311 H         1 UNK         0.3459 
    133 H133       35.2351   -1.0463   -5.5986 H         1 UNK         0.3459 
    134 H134       31.2808   -2.5254   -7.5305 H         1 UNK         0.0612 
    135 H135       30.8646   -1.3070   -8.6933 H         1 UNK         0.0612 
    136 H136       29.7830   -2.2665   -5.4750 H         1 UNK         0.0624 
    137 H137       31.4648   -2.1652   -5.0012 H         1 UNK         0.0624 
@<TRIPOS>BOND
     1    1    2 1    
     2    1   72 1    
     3    1   73 1    
     4    1   74 1    
     5    2    3 2    
     6    2    4 am   BACKBONE|DICT|INTERRES
     7    4    5 1    
     8    4   75 1    
     9    5    6 1    
    10    5   35 1    
    11    5   76 1    
    12    6    7 1    
    13    6   77 1    
    14    6   78 1    
    15    7    8 1    
    16    8    9 1    
    17    8   79 1    
    18    8   80 1    
    19    9   10 ar   
    20    9   14 ar   
    21   10   11 ar   
    22   10   81 1    
    23   11   12 ar   
    24   11   71 1    
    25   12   13 ar   
    26   12   82 1    
    27   13   14 ar   
    28   13   15 1    
    29   14   83 1    
    30   15   16 1    
    31   15   84 1    
    32   15   85 1    
    33   16   17 1    
    34   17   18 1    
    35   17   86 1    
    36   17   87 1    
    37   18   19 1    
    38   18   37 1    
    39   18   88 1    
    40   19   20 am   BACKBONE|DICT|INTERRES
    41   19   89 1    
    42   20   21 2    
    43   20   22 1    
    44   22   23 1    
    45   22   24 1    
    46   22   90 1    
    47   23   91 1    
    48   23   92 1    
    49   23   93 1    
    50   24   25 am   BACKBONE|DICT|INTERRES
    51   24   94 1    
    52   25   26 2    
    53   25   27 1    
    54   27   28 1    
    55   27   29 1    
    56   27   95 1    
    57   28   96 1    
    58   28   97 1    
    59   28   98 1    
    60   29   30 am   BACKBONE|DICT|INTERRES
    61   29   99 1    
    62   30   31 2    
    63   30   32 1    
    64   32   33 1    
    65   32   34 1    
    66   32  100 1    
    67   33  101 1    
    68   33  102 1    
    69   33  103 1    
    70   34   35 am   BACKBONE|DICT|INTERRES
    71   34  104 1    
    72   35   36 2    
    73   37   38 2    
    74   37   39 am   BACKBONE|DICT|INTERRES
    75   39   40 1    
    76   39  105 1    
    77   40   41 1    
    78   40   42 1    
    79   40  106 1    
    80   41  107 1    
    81   41  108 1    
    82   41  109 1    
    83   42   43 2    
    84   42   44 am   BACKBONE|DICT|INTERRES
    85   44   45 1    
    86   44  110 1    
    87   45   46 1    
    88   45   47 1    
    89   45  111 1    
    90   46  112 1    
    91   46  113 1    
    92   46  114 1    
    93   47   48 2    
    94   47   49 am   BACKBONE|DICT|INTERRES
    95   49   50 1    
    96   49  115 1    
    97   50   51 1    
    98   50   52 1    
    99   50  116 1    
   100   51  117 1    
   101   51  118 1    
   102   51  119 1    
   103   52   53 2    
   104   52   54 am   BACKBONE|DICT|INTERRES
   105   54   55 1    
   106   54  120 1    
   107   55   56 1    
   108   55   57 1    
   109   55  121 1    
   110   56  122 1    
   111   56  123 1    
   112   56  124 1    
   113   57   58 2    
   114   57   59 am   BACKBONE|DICT|INTERRES
   115   59   60 1    
   116   59  125 1    
   117   60   61 1    
   118   60   62 1    
   119   60  126 1    
   120   61  127 1    
   121   61  128 1    
   122   61  129 1    
   123   62   63 2    
   124   62   64 am   BACKBONE|DICT|INTERRES
   125   64   65 1    
   126   64  130 1    
   127   65   66 1    
   128   65   69 1    
   129   65  131 1    
   130   66   67 am   BACKBONE|DICT|INTERRES
   131   66   68 2    
   132   67  132 1    
   133   67  133 1    
   134   69   70 1    
   135   69  134 1    
   136   69  135 1    
   137   70   71 1    
   138   71  136 1    
   139   71  137 1    
@<TRIPOS>SUBSTRUCTURE
     1 UNK         1 GROUP             0       ****    0 ROOT    
