@<TRIPOS>MOLECULE
3R137
137   139    1
SMALL
USER_CHARGES


@<TRIPOS>ATOM
      1 CA         27.3458   -7.3780   -2.3081 C.3       0 UNK        -0.2020 
      2 C          26.8300   -6.1726   -1.5361 C.2       0 UNK         0.4855 
      3 O          25.9038   -6.3083   -0.7354 O.2       0 UNK        -0.5197 
      4 N          27.4289   -4.9979   -1.7638 N.am      1 UNK        -0.4892 
      5 CA         27.0207   -3.7239   -1.1627 C.3       1 UNK         0.0835 
      6 C6         28.1417   -2.6648   -1.2554 C.3       12 UNK        -0.0855 
      7 S7         29.6199   -3.0847   -0.2698 S.3       12 UNK        -0.2931 
      8 C8         30.8781   -3.4511   -1.5435 C.3       12 UNK         0.0378 
      9 C9         31.0097   -2.3773   -2.6213 C.ar      12 UNK        -0.0802 
     10 C10        31.1106   -2.7620   -3.9618 C.ar      12 UNK        -0.0944 
     11 C11        31.2149   -1.8036   -4.9725 C.ar      12 UNK        -0.0787 
     12 C12        31.1882   -0.4483   -4.6381 C.ar      12 UNK        -0.0862 
     13 C13        31.0783   -0.0444   -3.3038 C.ar      12 UNK        -0.0733 
     14 C14        31.0218   -1.0144   -2.2973 C.ar      12 UNK        -0.0832 
     15 C15        31.0202    1.4434   -2.9686 C.3       12 UNK         0.0240 
     16 S16        29.5587    1.9468   -1.9860 S.3       12 UNK        -0.2522 
     17 C17        28.1632    0.9654   -2.6426 C.3       12 UNK        -0.0967 
     18 CA         27.9519    1.0293   -4.1744 C.3       5 UNK         0.0660 
     19 N          27.2736   -0.1711   -4.6610 N.am      5 UNK        -0.4015 
     20 C          27.4906   -0.7368   -5.8551 C.2       4 UNK         0.4946 
     21 O          28.3043   -0.3177   -6.6790 O.2       4 UNK        -0.5353 
     22 CA         26.6387   -1.9690   -6.2033 C.3       4 UNK         0.0277 
     23 CB         27.3482   -3.2539   -5.7486 C.3       4 UNK        -0.1981 
     24 N          25.2899   -1.9208   -5.6304 N.am      4 UNK        -0.4209 
     25 C          24.3644   -1.0100   -5.9705 C.2       3 UNK         0.4942 
     26 O          24.5520   -0.1261   -6.8044 O.2       3 UNK        -0.5208 
     27 CA         23.0200   -1.0456   -5.2262 C.3       3 UNK         0.0250 
     28 CB         22.0261   -1.9551   -5.9652 C.3       3 UNK        -0.1990 
     29 N          23.1104   -1.4612   -3.8253 N.am      3 UNK        -0.4232 
     30 C          23.9076   -0.9339   -2.8850 C.2       2 UNK         0.4993 
     31 O          24.7146   -0.0232   -3.0948 O.2       2 UNK        -0.5286 
     32 CA         23.8284   -1.5626   -1.4798 C.3       2 UNK         0.0209 
     33 CB         22.6244   -2.5118   -1.2770 C.3       2 UNK        -0.1931 
     34 N          25.0706   -2.2513   -1.1080 N.am      2 UNK        -0.4546 
     35 C          25.7321   -3.1808   -1.8165 C.2       1 UNK         0.5154 
     36 O          25.3924   -3.5675   -2.9399 O.2       1 UNK        -0.5181 
     37 C          27.2039    2.2966   -4.6157 C.2       5 UNK         0.5014 
     38 O          27.8544    3.2772   -4.9774 O.2       5 UNK        -0.5248 
     39 N          25.8621    2.2475   -4.6290 N.am      6 UNK        -0.4434 
     40 CA         25.0021    3.3333   -5.1098 C.3       6 UNK         0.0363 
     41 CB         23.5321    3.0099   -4.8032 C.3       6 UNK        -0.1936 
     42 C          25.1941    3.6302   -6.6082 C.2       6 UNK         0.5081 
     43 O          25.2798    4.7991   -6.9854 O.2       6 UNK        -0.5248 
     44 N          25.2835    2.5745   -7.4300 N.am      7 UNK        -0.4718 
     45 CA         25.5709    2.6715   -8.8641 C.3       7 UNK         0.0273 
     46 CB         25.0371    1.4151   -9.5721 C.3       7 UNK        -0.1935 
     47 C          27.0689    2.8478   -9.1697 C.2       7 UNK         0.5018 
     48 O          27.3956    3.2746  -10.2776 O.2       7 UNK        -0.5186 
     49 N          27.9359    2.4986   -8.2044 N.am      8 UNK        -0.4240 
     50 CA         29.4004    2.4307   -8.2892 C.3       8 UNK         0.0235 
     51 CB         30.0135    3.8364   -8.4580 C.3       8 UNK        -0.2000 
     52 C          29.8394    1.4404   -9.3825 C.2       8 UNK         0.4941 
     53 O          30.4234    1.8402  -10.3926 O.2       8 UNK        -0.5273 
     54 N          29.4948    0.1628   -9.1748 N.am      9 UNK        -0.4262 
     55 CA         29.6143   -0.9490  -10.1245 C.3       9 UNK         0.0264 
     56 CB         28.7438   -2.1151   -9.6189 C.3       9 UNK        -0.1955 
     57 C          31.0655   -1.3811  -10.4298 C.2       9 UNK         0.5031 
     58 O          31.4256   -2.5365  -10.2018 O.2       9 UNK        -0.5390 
     59 N          31.8661   -0.4411  -10.9494 N.am      10 UNK        -0.4204 
     60 CA         33.2442   -0.5724  -11.4469 C.3       10 UNK         0.0237 
     61 CB         33.3049   -1.5527  -12.6381 C.3       10 UNK        -0.1985 
     62 C          34.3103   -0.8971  -10.3798 C.2       10 UNK         0.4970 
     63 O          35.4631   -1.1376  -10.7436 O.2       10 UNK        -0.4914 
     64 N          33.9348   -0.8819   -9.0962 N.am      11 UNK        -0.4285 
     65 CA         34.8348   -1.0854   -7.9534 C.3       11 UNK         0.1007 
     66 C          35.8193    0.0997   -7.7568 C.2       11 UNK         0.5703 
     67 N          37.0226   -0.1683   -7.2680 N.am      11 UNK        -0.7361 
     68 O          35.4903    1.2587   -8.0049 O.2       11 UNK        -0.4986 
     69 C69        34.0422   -1.3620   -6.6521 C.3       12 UNK        -0.0947 
     70 S70        33.0247   -2.8726   -6.7700 S.3       12 UNK        -0.2240 
     71 C71        31.3558   -2.2352   -6.4248 C.3       12 UNK         0.0194 
     72 H72        26.5481   -7.8011   -2.9181 H         1 UNK         0.0906 
     73 H73        28.1741   -7.1176   -2.9669 H         1 UNK         0.0906 
     74 H74        27.6912   -8.1466   -1.6172 H         1 UNK         0.0906 
     75 H75        28.1692   -4.9412   -2.4468 H         1 UNK         0.3140 
     76 H76        26.8012   -3.9038   -0.1074 H         1 UNK         0.1085 
     77 H77        27.7907   -1.7076   -0.8666 H         1 UNK         0.0836 
     78 H78        28.4055   -2.4882   -2.2989 H         1 UNK         0.0836 
     79 H79        30.6338   -4.4151   -1.9923 H         1 UNK         0.0731 
     80 H80        31.8452   -3.5766   -1.0551 H         1 UNK         0.0731 
     81 H81        31.1189   -3.8111   -4.2249 H         1 UNK         0.1312 
     82 H82        31.2462    0.2936   -5.4224 H         1 UNK         0.1406 
     83 H83        30.9452   -0.7053   -1.2636 H         1 UNK         0.1631 
     84 H84        31.0366    2.0432   -3.8800 H         1 UNK         0.0717 
     85 H85        31.9206    1.7140   -2.4158 H         1 UNK         0.0717 
     86 H86        28.3633   -0.0631   -2.3516 H         1 UNK         0.0934 
     87 H87        27.2525    1.2406   -2.1062 H         1 UNK         0.0934 
     88 H88        28.9256    1.0750   -4.6588 H         1 UNK         0.0739 
     89 H89        26.5259   -0.5310   -4.0801 H         1 UNK         0.3093 
     90 H90        26.5351   -2.0001   -7.2897 H         1 UNK         0.0818 
     91 H91        28.3220   -3.3501   -6.2284 H         1 UNK         0.0819 
     92 H92        26.7712   -4.1413   -6.0091 H         1 UNK         0.0819 
     93 H93        27.5145   -3.2662   -4.6711 H         1 UNK         0.0819 
     94 H94        25.0765   -2.5884   -4.8968 H         1 UNK         0.3041 
     95 H95        22.6152   -0.0335   -5.2317 H         1 UNK         0.0784 
     96 H96        21.9224   -1.6531   -7.0086 H         1 UNK         0.0793 
     97 H97        22.3493   -2.9970   -5.9580 H         1 UNK         0.0793 
     98 H98        21.0334   -1.9072   -5.5171 H         1 UNK         0.0793 
     99 H99        22.5172   -2.2308   -3.5507 H         1 UNK         0.3024 
    100 H100       23.7106   -0.7257   -0.7891 H         1 UNK         0.1171 
    101 H101       22.5607   -2.8392   -0.2391 H         1 UNK         0.0786 
    102 H102       21.6810   -2.0144   -1.5075 H         1 UNK         0.0786 
    103 H103       22.6942   -3.4080   -1.8949 H         1 UNK         0.0786 
    104 H104       25.4589   -1.9723   -0.2174 H         1 UNK         0.2977 
    105 H105       25.3985    1.4202   -4.2642 H         1 UNK         0.3127 
    106 H106       25.2730    4.2341   -4.5547 H         1 UNK         0.0770 
    107 H107       23.1772    2.1633   -5.3893 H         1 UNK         0.0814 
    108 H108       22.8914    3.8592   -5.0439 H         1 UNK         0.0814 
    109 H109       23.3832    2.7783   -3.7483 H         1 UNK         0.0814 
    110 H110       25.1350    1.6367   -7.0609 H         1 UNK         0.2983 
    111 H111       25.0472    3.5394   -9.2712 H         1 UNK         0.0947 
    112 H112       25.1673    1.4903  -10.6525 H         1 UNK         0.0806 
    113 H113       23.9731    1.2729   -9.3822 H         1 UNK         0.0806 
    114 H114       25.5593    0.5153   -9.2437 H         1 UNK         0.0806 
    115 H115       27.5396    2.1596   -7.3394 H         1 UNK         0.3000 
    116 H116       29.7510    2.0307   -7.3362 H         1 UNK         0.0850 
    117 H117       31.1030    3.7879   -8.4468 H         1 UNK         0.0810 
    118 H118       29.7084    4.4985   -7.6476 H         1 UNK         0.0810 
    119 H119       29.7200    4.3015   -9.3995 H         1 UNK         0.0810 
    120 H120       29.0361   -0.0571   -8.2894 H         1 UNK         0.3040 
    121 H121       29.1881   -0.6149  -11.0728 H         1 UNK         0.0766 
    122 H122       27.7015   -1.8137   -9.5150 H         1 UNK         0.0812 
    123 H123       29.0855   -2.4812   -8.6502 H         1 UNK         0.0812 
    124 H124       28.7676   -2.9553  -10.3140 H         1 UNK         0.0812 
    125 H125       31.4656    0.4967  -11.0014 H         1 UNK         0.3205 
    126 H126       33.5087    0.4154  -11.8269 H         1 UNK         0.0754 
    127 H127       34.2882   -1.5395  -13.1099 H         1 UNK         0.0769 
    128 H128       32.5775   -1.2897  -13.4061 H         1 UNK         0.0769 
    129 H129       33.1091   -2.5796  -12.3276 H         1 UNK         0.0769 
    130 H130       32.9711   -0.6858   -8.8788 H         1 UNK         0.2981 
    131 H131       35.4333   -1.9723   -8.1724 H         1 UNK         0.0541 
    132 H132       37.2987   -1.1131   -7.0496 H         1 UNK         0.3459 
    133 H133       37.6707    0.5895   -7.1197 H         1 UNK         0.3459 
    134 H134       34.7220   -1.4961   -5.8087 H         1 UNK         0.0612 
    135 H135       33.4161   -0.5043   -6.4037 H         1 UNK         0.0612 
    136 H136       31.1277   -1.4131   -7.1048 H         1 UNK         0.0624 
    137 H137       30.6330   -3.0214   -6.6424 H         1 UNK         0.0624 
@<TRIPOS>BOND
     1    1    2 1    
     2    1   72 1    
     3    1   73 1    
     4    1   74 1    
     5    2    3 2    
     6    2    4 am   BACKBONE|DICT|INTERRES
     7    4    5 1    
     8    4   75 1    
     9    5    6 1    
    10    5   35 1    
    11    5   76 1    
    12    6    7 1    
    13    6   77 1    
    14    6   78 1    
    15    7    8 1    
    16    8    9 1    
    17    8   79 1    
    18    8   80 1    
    19    9   10 ar   
    20    9   14 ar   
    21   10   11 ar   
    22   10   81 1    
    23   11   12 ar   
    24   11   71 1    
    25   12   13 ar   
    26   12   82 1    
    27   13   14 ar   
    28   13   15 1    
    29   14   83 1    
    30   15   16 1    
    31   15   84 1    
    32   15   85 1    
    33   16   17 1    
    34   17   18 1    
    35   17   86 1    
    36   17   87 1    
    37   18   19 1    
    38   18   37 1    
    39   18   88 1    
    40   19   20 am   BACKBONE|DICT|INTERRES
    41   19   89 1    
    42   20   21 2    
    43   20   22 1    
    44   22   23 1    
    45   22   24 1    
    46   22   90 1    
    47   23   91 1    
    48   23   92 1    
    49   23   93 1    
    50   24   25 am   BACKBONE|DICT|INTERRES
    51   24   94 1    
    52   25   26 2    
    53   25   27 1    
    54   27   28 1    
    55   27   29 1    
    56   27   95 1    
    57   28   96 1    
    58   28   97 1    
    59   28   98 1    
    60   29   30 am   BACKBONE|DICT|INTERRES
    61   29   99 1    
    62   30   31 2    
    63   30   32 1    
    64   32   33 1    
    65   32   34 1    
    66   32  100 1    
    67   33  101 1    
    68   33  102 1    
    69   33  103 1    
    70   34   35 am   BACKBONE|DICT|INTERRES
    71   34  104 1    
    72   35   36 2    
    73   37   38 2    
    74   37   39 am   BACKBONE|DICT|INTERRES
    75   39   40 1    
    76   39  105 1    
    77   40   41 1    
    78   40   42 1    
    79   40  106 1    
    80   41  107 1    
    81   41  108 1    
    82   41  109 1    
    83   42   43 2    
    84   42   44 am   BACKBONE|DICT|INTERRES
    85   44   45 1    
    86   44  110 1    
    87   45   46 1    
    88   45   47 1    
    89   45  111 1    
    90   46  112 1    
    91   46  113 1    
    92   46  114 1    
    93   47   48 2    
    94   47   49 am   BACKBONE|DICT|INTERRES
    95   49   50 1    
    96   49  115 1    
    97   50   51 1    
    98   50   52 1    
    99   50  116 1    
   100   51  117 1    
   101   51  118 1    
   102   51  119 1    
   103   52   53 2    
   104   52   54 am   BACKBONE|DICT|INTERRES
   105   54   55 1    
   106   54  120 1    
   107   55   56 1    
   108   55   57 1    
   109   55  121 1    
   110   56  122 1    
   111   56  123 1    
   112   56  124 1    
   113   57   58 2    
   114   57   59 am   BACKBONE|DICT|INTERRES
   115   59   60 1    
   116   59  125 1    
   117   60   61 1    
   118   60   62 1    
   119   60  126 1    
   120   61  127 1    
   121   61  128 1    
   122   61  129 1    
   123   62   63 2    
   124   62   64 am   BACKBONE|DICT|INTERRES
   125   64   65 1    
   126   64  130 1    
   127   65   66 1    
   128   65   69 1    
   129   65  131 1    
   130   66   67 am   BACKBONE|DICT|INTERRES
   131   66   68 2    
   132   67  132 1    
   133   67  133 1    
   134   69   70 1    
   135   69  134 1    
   136   69  135 1    
   137   70   71 1    
   138   71  136 1    
   139   71  137 1    
@<TRIPOS>SUBSTRUCTURE
     1 UNK         1 GROUP             0       ****    0 ROOT    
