@<TRIPOS>MOLECULE
3R137
137   139    1
SMALL
USER_CHARGES


@<TRIPOS>ATOM
      1 CA         22.8653   -4.3632   -0.9053 C.3       0 UNK        -0.2020 
      2 C          24.2956   -4.2670   -0.3952 C.2       0 UNK         0.4855 
      3 O          24.5410   -4.4890    0.7906 O.2       0 UNK        -0.5197 
      4 N          25.2392   -3.9352   -1.2801 N.am      1 UNK        -0.4892 
      5 CA         26.6571   -3.7431   -0.9883 C.3       1 UNK         0.0835 
      6 C6         27.4244   -5.0907   -0.9721 C.3       12 UNK        -0.0855 
      7 S7         29.1068   -4.9670   -0.2660 S.3       12 UNK        -0.2931 
      8 C8         30.1060   -5.9133   -1.4621 C.3       12 UNK         0.0378 
      9 C9         30.2711   -5.1940   -2.7951 C.ar      12 UNK        -0.0802 
     10 C10        31.2745   -4.2336   -2.9642 C.ar      12 UNK        -0.0944 
     11 C11        31.4523   -3.5967   -4.1986 C.ar      12 UNK        -0.0787 
     12 C12        30.6149   -3.9311   -5.2672 C.ar      12 UNK        -0.0862 
     13 C13        29.5923   -4.8688   -5.1019 C.ar      12 UNK        -0.0733 
     14 C14        29.4375   -5.5098   -3.8714 C.ar      12 UNK        -0.0832 
     15 C15        28.6352   -5.1760   -6.2418 C.3       12 UNK         0.0240 
     16 S16        27.1282   -4.1633   -6.1123 S.3       12 UNK        -0.2522 
     17 C17        27.7974   -2.5178   -6.5176 C.3       12 UNK        -0.0967 
     18 CA         26.6849   -1.4958   -6.8313 C.3       5 UNK         0.0660 
     19 N          25.8658   -1.1995   -5.6519 N.am      5 UNK        -0.4015 
     20 C          24.6912   -0.5537   -5.6789 C.2       4 UNK         0.4946 
     21 O          24.1655   -0.1257   -6.7076 O.2       4 UNK        -0.5353 
     22 CA         23.9989   -0.3295   -4.3267 C.3       4 UNK         0.0277 
     23 CB         23.2864   -1.6083   -3.8546 C.3       4 UNK        -0.1981 
     24 N          24.9612    0.1104   -3.3150 N.am      4 UNK        -0.4209 
     25 C          25.3512    1.3840   -3.1575 C.2       3 UNK         0.4942 
     26 O          24.8673    2.3289   -3.7812 O.2       3 UNK        -0.5208 
     27 CA         26.4746    1.6633   -2.1409 C.3       3 UNK         0.0250 
     28 CB         25.8798    2.0548   -0.7787 C.3       3 UNK        -0.1990 
     29 N          27.4095    0.5494   -1.9568 N.am      3 UNK        -0.4232 
     30 C          28.2121    0.0573   -2.9115 C.2       2 UNK         0.4993 
     31 O          28.2449    0.4803   -4.0632 O.2       2 UNK        -0.5286 
     32 CA         29.0707   -1.1580   -2.5340 C.3       2 UNK         0.0209 
     33 CB         30.3484   -0.7055   -1.8086 C.3       2 UNK        -0.1931 
     34 N          28.3663   -2.1459   -1.7114 N.am      2 UNK        -0.4546 
     35 C          27.2001   -2.7312   -2.0147 C.2       1 UNK         0.5154 
     36 O          26.5417   -2.4665   -3.0282 O.2       1 UNK        -0.5181 
     37 C          27.2794   -0.2390   -7.5003 C.2       5 UNK         0.5014 
     38 O          27.5596   -0.2923   -8.6986 O.2       5 UNK        -0.5248 
     39 N          27.4443    0.8623   -6.7510 N.am      6 UNK        -0.4434 
     40 CA         27.9944    2.1604   -7.1725 C.3       6 UNK         0.0363 
     41 CB         27.9199    3.1424   -5.9897 C.3       6 UNK        -0.1936 
     42 C          27.3641    2.8045   -8.4232 C.2       6 UNK         0.5081 
     43 O          27.9680    3.7099   -8.9989 O.2       6 UNK        -0.5248 
     44 N          26.1840    2.3293   -8.8425 N.am      7 UNK        -0.4718 
     45 CA         25.5615    2.6544  -10.1270 C.3       7 UNK         0.0273 
     46 CB         24.1388    2.0727  -10.1500 C.3       7 UNK        -0.1935 
     47 C          26.3658    2.1589  -11.3482 C.2       7 UNK         0.5018 
     48 O          26.1870    2.7120  -12.4345 O.2       7 UNK        -0.5186 
     49 N          27.2207    1.1414  -11.1625 N.am      8 UNK        -0.4240 
     50 CA         28.0720    0.5652  -12.2058 C.3       8 UNK         0.0235 
     51 CB         27.4198   -0.7184  -12.7478 C.3       8 UNK        -0.2000 
     52 C          29.5062    0.2837  -11.7280 C.2       8 UNK         0.4941 
     53 O          30.4340    0.4425  -12.5233 O.2       8 UNK        -0.5273 
     54 N          29.6808   -0.1522  -10.4724 N.am      9 UNK        -0.4262 
     55 CA         30.9792   -0.5143   -9.8997 C.3       9 UNK         0.0264 
     56 CB         30.7634   -1.4192   -8.6761 C.3       9 UNK        -0.1955 
     57 C          31.8009    0.7197   -9.5020 C.2       9 UNK         0.5031 
     58 O          31.2382    1.7247   -9.0603 O.2       9 UNK        -0.5390 
     59 N          33.1309    0.5879   -9.5998 N.am      10 UNK        -0.4204 
     60 CA         34.1149    1.6205   -9.2535 C.3       10 UNK         0.0237 
     61 CB         35.5125    1.1524   -9.6921 C.3       10 UNK        -0.1985 
     62 C          34.1250    2.0213   -7.7659 C.2       10 UNK         0.4970 
     63 O          34.5789    3.1218   -7.4496 O.2       10 UNK        -0.4914 
     64 N          33.6224    1.1425   -6.8882 N.am      11 UNK        -0.4285 
     65 CA         33.3987    1.4199   -5.4624 C.3       11 UNK         0.1007 
     66 C          32.2160    2.3897   -5.1604 C.2       11 UNK         0.5703 
     67 N          31.4006    2.7767   -6.1353 N.am      11 UNK        -0.7361 
     68 O          32.0534    2.8196   -4.0210 O.2       11 UNK        -0.4986 
     69 C69        33.3316    0.1135   -4.6285 C.3       12 UNK        -0.0947 
     70 S70        31.9448   -0.9893   -5.0648 S.3       12 UNK        -0.2240 
     71 C71        32.5579   -2.5622   -4.3767 C.3       12 UNK         0.0194 
     72 H72        22.2408   -3.6176   -0.4139 H         1 UNK         0.0906 
     73 H73        22.8036   -4.2021   -1.9814 H         1 UNK         0.0906 
     74 H74        22.4548   -5.3488   -0.6876 H         1 UNK         0.0906 
     75 H75        25.0012   -3.7105   -2.2388 H         1 UNK         0.3140 
     76 H76        26.7391   -3.2764   -0.0037 H         1 UNK         0.1085 
     77 H77        27.4472   -5.5254   -1.9701 H         1 UNK         0.0836 
     78 H78        26.8834   -5.8112   -0.3566 H         1 UNK         0.0836 
     79 H79        31.0897   -6.0949   -1.0264 H         1 UNK         0.0731 
     80 H80        29.6580   -6.8974   -1.6094 H         1 UNK         0.0731 
     81 H81        31.9208   -3.9886   -2.1325 H         1 UNK         0.1312 
     82 H82        30.7447   -3.4406   -6.2220 H         1 UNK         0.1406 
     83 H83        28.6585   -6.2504   -3.7547 H         1 UNK         0.1631 
     84 H84        28.3564   -6.2305   -6.2185 H         1 UNK         0.0717 
     85 H85        29.1148   -5.0085   -7.2075 H         1 UNK         0.0717 
     86 H86        28.4203   -2.1658   -5.6933 H         1 UNK         0.0934 
     87 H87        28.4558   -2.6400   -7.3780 H         1 UNK         0.0934 
     88 H88        26.0222   -1.9434   -7.5755 H         1 UNK         0.0739 
     89 H89        26.2063   -1.5638   -4.7669 H         1 UNK         0.3093 
     90 H90        23.2401    0.4450   -4.4599 H         1 UNK         0.0818 
     91 H91        22.8024   -1.4604   -2.8891 H         1 UNK         0.0819 
     92 H92        22.5111   -1.9015   -4.5638 H         1 UNK         0.0819 
     93 H93        23.9726   -2.4498   -3.7629 H         1 UNK         0.0819 
     94 H94        25.4480   -0.6150   -2.8042 H         1 UNK         0.3041 
     95 H95        27.0481    2.5118   -2.5208 H         1 UNK         0.0784 
     96 H96        25.1992    2.9017   -0.8791 H         1 UNK         0.0793 
     97 H97        25.3153    1.2346   -0.3330 H         1 UNK         0.0793 
     98 H98        26.6582    2.3502   -0.0749 H         1 UNK         0.0793 
     99 H99        27.4440    0.1272   -1.0404 H         1 UNK         0.3024 
    100 H100       29.3570   -1.6538   -3.4636 H         1 UNK         0.1171 
    101 H101       30.1298   -0.2700   -0.8331 H         1 UNK         0.0786 
    102 H102       30.8801    0.0497   -2.3895 H         1 UNK         0.0786 
    103 H103       31.0354   -1.5380   -1.6591 H         1 UNK         0.0786 
    104 H104       28.8491   -2.4638   -0.8820 H         1 UNK         0.2977 
    105 H105       27.3171    0.7583   -5.7479 H         1 UNK         0.3127 
    106 H106       29.0438    1.9876   -7.4142 H         1 UNK         0.0770 
    107 H107       26.8961    3.2628   -5.6337 H         1 UNK         0.0814 
    108 H108       28.2855    4.1310   -6.2710 H         1 UNK         0.0814 
    109 H109       28.5293    2.8063   -5.1516 H         1 UNK         0.0814 
    110 H110       25.7514    1.5940   -8.2997 H         1 UNK         0.2983 
    111 H111       25.4927    3.7418  -10.2023 H         1 UNK         0.0947 
    112 H112       23.6317    2.3160  -11.0849 H         1 UNK         0.0806 
    113 H113       23.5316    2.4755   -9.3391 H         1 UNK         0.0806 
    114 H114       24.1463    0.9859  -10.0555 H         1 UNK         0.0806 
    115 H115       27.2987    0.7397  -10.2313 H         1 UNK         0.3000 
    116 H116       28.1627    1.2731  -13.0328 H         1 UNK         0.0850 
    117 H117       28.0369   -1.1745  -13.5233 H         1 UNK         0.0810 
    118 H118       26.4455   -0.5102  -13.1902 H         1 UNK         0.0810 
    119 H119       27.2792   -1.4606  -11.9609 H         1 UNK         0.0810 
    120 H120       28.8794   -0.2353   -9.8497 H         1 UNK         0.3040 
    121 H121       31.5354   -1.0817  -10.6493 H         1 UNK         0.0766 
    122 H122       31.7145   -1.7614   -8.2663 H         1 UNK         0.0812 
    123 H123       30.1907   -2.3076   -8.9410 H         1 UNK         0.0812 
    124 H124       30.2367   -0.8966   -7.8766 H         1 UNK         0.0812 
    125 H125       33.5035   -0.2806   -9.9574 H         1 UNK         0.3205 
    126 H126       33.8607    2.5171   -9.8229 H         1 UNK         0.0754 
    127 H127       36.2649    1.9130   -9.4776 H         1 UNK         0.0769 
    128 H128       35.5492    0.9593  -10.7645 H         1 UNK         0.0769 
    129 H129       35.8145    0.2409   -9.1744 H         1 UNK         0.0769 
    130 H130       33.2596    0.2653   -7.2276 H         1 UNK         0.2981 
    131 H131       34.2847    1.9521   -5.1112 H         1 UNK         0.0541 
    132 H132       31.5082    2.4268   -7.0797 H         1 UNK         0.3459 
    133 H133       30.6575    3.4186   -5.9184 H         1 UNK         0.3459 
    134 H134       33.2656    0.3430   -3.5634 H         1 UNK         0.0612 
    135 H135       34.2646   -0.4382   -4.7539 H         1 UNK         0.0612 
    136 H136       33.0409   -2.3603   -3.4193 H         1 UNK         0.0624 
    137 H137       33.3265   -2.9661   -5.0366 H         1 UNK         0.0624 
@<TRIPOS>BOND
     1    1    2 1    
     2    1   72 1    
     3    1   73 1    
     4    1   74 1    
     5    2    3 2    
     6    2    4 am   BACKBONE|DICT|INTERRES
     7    4    5 1    
     8    4   75 1    
     9    5    6 1    
    10    5   35 1    
    11    5   76 1    
    12    6    7 1    
    13    6   77 1    
    14    6   78 1    
    15    7    8 1    
    16    8    9 1    
    17    8   79 1    
    18    8   80 1    
    19    9   10 ar   
    20    9   14 ar   
    21   10   11 ar   
    22   10   81 1    
    23   11   12 ar   
    24   11   71 1    
    25   12   13 ar   
    26   12   82 1    
    27   13   14 ar   
    28   13   15 1    
    29   14   83 1    
    30   15   16 1    
    31   15   84 1    
    32   15   85 1    
    33   16   17 1    
    34   17   18 1    
    35   17   86 1    
    36   17   87 1    
    37   18   19 1    
    38   18   37 1    
    39   18   88 1    
    40   19   20 am   BACKBONE|DICT|INTERRES
    41   19   89 1    
    42   20   21 2    
    43   20   22 1    
    44   22   23 1    
    45   22   24 1    
    46   22   90 1    
    47   23   91 1    
    48   23   92 1    
    49   23   93 1    
    50   24   25 am   BACKBONE|DICT|INTERRES
    51   24   94 1    
    52   25   26 2    
    53   25   27 1    
    54   27   28 1    
    55   27   29 1    
    56   27   95 1    
    57   28   96 1    
    58   28   97 1    
    59   28   98 1    
    60   29   30 am   BACKBONE|DICT|INTERRES
    61   29   99 1    
    62   30   31 2    
    63   30   32 1    
    64   32   33 1    
    65   32   34 1    
    66   32  100 1    
    67   33  101 1    
    68   33  102 1    
    69   33  103 1    
    70   34   35 am   BACKBONE|DICT|INTERRES
    71   34  104 1    
    72   35   36 2    
    73   37   38 2    
    74   37   39 am   BACKBONE|DICT|INTERRES
    75   39   40 1    
    76   39  105 1    
    77   40   41 1    
    78   40   42 1    
    79   40  106 1    
    80   41  107 1    
    81   41  108 1    
    82   41  109 1    
    83   42   43 2    
    84   42   44 am   BACKBONE|DICT|INTERRES
    85   44   45 1    
    86   44  110 1    
    87   45   46 1    
    88   45   47 1    
    89   45  111 1    
    90   46  112 1    
    91   46  113 1    
    92   46  114 1    
    93   47   48 2    
    94   47   49 am   BACKBONE|DICT|INTERRES
    95   49   50 1    
    96   49  115 1    
    97   50   51 1    
    98   50   52 1    
    99   50  116 1    
   100   51  117 1    
   101   51  118 1    
   102   51  119 1    
   103   52   53 2    
   104   52   54 am   BACKBONE|DICT|INTERRES
   105   54   55 1    
   106   54  120 1    
   107   55   56 1    
   108   55   57 1    
   109   55  121 1    
   110   56  122 1    
   111   56  123 1    
   112   56  124 1    
   113   57   58 2    
   114   57   59 am   BACKBONE|DICT|INTERRES
   115   59   60 1    
   116   59  125 1    
   117   60   61 1    
   118   60   62 1    
   119   60  126 1    
   120   61  127 1    
   121   61  128 1    
   122   61  129 1    
   123   62   63 2    
   124   62   64 am   BACKBONE|DICT|INTERRES
   125   64   65 1    
   126   64  130 1    
   127   65   66 1    
   128   65   69 1    
   129   65  131 1    
   130   66   67 am   BACKBONE|DICT|INTERRES
   131   66   68 2    
   132   67  132 1    
   133   67  133 1    
   134   69   70 1    
   135   69  134 1    
   136   69  135 1    
   137   70   71 1    
   138   71  136 1    
   139   71  137 1    
@<TRIPOS>SUBSTRUCTURE
     1 UNK         1 GROUP             0       ****    0 ROOT    
