@<TRIPOS>MOLECULE
3R137
137   139    1
SMALL
USER_CHARGES


@<TRIPOS>ATOM
      1 CA         24.5077   -0.3765    0.9352 C.3       0 UNK        -0.2020 
      2 C          25.7996   -1.1400    0.6869 C.2       0 UNK         0.4855 
      3 O          26.7904   -0.9103    1.3798 O.2       0 UNK        -0.5197 
      4 N          25.7979   -2.0428   -0.2980 N.am      1 UNK        -0.4892 
      5 CA         26.9491   -2.8266   -0.7349 C.3       1 UNK         0.0835 
      6 C6         27.2875   -3.9692    0.2623 C.3       12 UNK        -0.0855 
      7 S7         28.7364   -4.9979   -0.1678 S.3       12 UNK        -0.2931 
      8 C8         30.1390   -3.9573    0.3521 C.3       12 UNK         0.0378 
      9 C9         30.5509   -2.9706   -0.7332 C.ar      12 UNK        -0.0802 
     10 C10        31.1615   -3.4334   -1.9050 C.ar      12 UNK        -0.0944 
     11 C11        31.5702   -2.5371   -2.8977 C.ar      12 UNK        -0.0787 
     12 C12        31.3569   -1.1693   -2.7065 C.ar      12 UNK        -0.0862 
     13 C13        30.7270   -0.6912   -1.5552 C.ar      12 UNK        -0.0733 
     14 C14        30.3467   -1.5971   -0.5595 C.ar      12 UNK        -0.0832 
     15 C15        30.4980    0.8085   -1.3937 C.3       12 UNK         0.0240 
     16 S16        28.8014    1.2551   -0.8920 S.3       12 UNK        -0.2522 
     17 C17        27.7797    0.5915   -2.2474 C.3       12 UNK        -0.0967 
     18 CA         27.7457    1.5192   -3.4954 C.3       5 UNK         0.0660 
     19 N          28.5732    0.9858   -4.5761 N.am      5 UNK        -0.4015 
     20 C          29.0839    1.7152   -5.5734 C.2       4 UNK         0.4946 
     21 O          28.9947    2.9399   -5.6425 O.2       4 UNK        -0.5353 
     22 CA         29.8069    0.9516   -6.6942 C.3       4 UNK         0.0277 
     23 CB         31.3071    0.8775   -6.3790 C.3       4 UNK        -0.1981 
     24 N          29.2381   -0.3858   -6.9337 N.am      4 UNK        -0.4209 
     25 C          28.0672   -0.5736   -7.5635 C.2       3 UNK         0.4942 
     26 O          27.4343    0.3494   -8.0728 O.2       3 UNK        -0.5208 
     27 CA         27.4615   -1.9882   -7.6417 C.3       3 UNK         0.0250 
     28 CB         27.7294   -2.6332   -9.0121 C.3       3 UNK        -0.1990 
     29 N          27.8100   -2.9273   -6.5687 N.am      3 UNK        -0.4232 
     30 C          27.6150   -2.7176   -5.2597 C.2       2 UNK         0.4993 
     31 O          27.3613   -1.6074   -4.7856 O.2       2 UNK        -0.5286 
     32 CA         27.6594   -3.9565   -4.3436 C.3       2 UNK         0.0209 
     33 CB         28.8249   -4.9175   -4.6430 C.3       2 UNK        -0.1931 
     34 N          27.7170   -3.5721   -2.9341 N.am      2 UNK        -0.4546 
     35 C          26.6540   -3.3059   -2.1669 C.2       1 UNK         0.5154 
     36 O          25.4828   -3.4162   -2.5447 O.2       1 UNK        -0.5181 
     37 C          26.3068    1.7366   -4.0036 C.2       5 UNK         0.5014 
     38 O          25.7132    2.7791   -3.7241 O.2       5 UNK        -0.5248 
     39 N          25.7711    0.7414   -4.7240 N.am      6 UNK        -0.4434 
     40 CA         24.3821    0.7087   -5.1773 C.3       6 UNK         0.0363 
     41 CB         23.9911   -0.7399   -5.5106 C.3       6 UNK        -0.1936 
     42 C          24.0790    1.6377   -6.3656 C.2       6 UNK         0.5081 
     43 O          23.0120    2.2530   -6.3720 O.2       6 UNK        -0.5248 
     44 N          24.9754    1.6979   -7.3618 N.am      7 UNK        -0.4718 
     45 CA         24.7000    2.3258   -8.6619 C.3       7 UNK         0.0273 
     46 CB         24.2614    1.2252   -9.6480 C.3       7 UNK        -0.1935 
     47 C          25.8748    3.1371   -9.2362 C.2       7 UNK         0.5018 
     48 O          25.7559    3.6219  -10.3625 O.2       7 UNK        -0.5186 
     49 N          26.9840    3.2606   -8.4897 N.am      8 UNK        -0.4240 
     50 CA         28.2595    3.8695   -8.9036 C.3       8 UNK         0.0235 
     51 CB         28.0988    5.3855   -9.1506 C.3       8 UNK        -0.2000 
     52 C          28.9366    3.1385  -10.0856 C.2       8 UNK         0.4941 
     53 O          29.6756    3.7635  -10.8476 O.2       8 UNK        -0.5273 
     54 N          28.6919    1.8263  -10.2130 N.am      9 UNK        -0.4262 
     55 CA         29.1192    0.9858  -11.3357 C.3       9 UNK         0.0264 
     56 CB         27.9077    0.1753  -11.8290 C.3       9 UNK        -0.1955 
     57 C          30.3361    0.1015  -10.9960 C.2       9 UNK         0.5031 
     58 O          30.4239   -1.0322  -11.4719 O.2       9 UNK        -0.5390 
     59 N          31.2621    0.6354  -10.1848 N.am      10 UNK        -0.4204 
     60 CA         32.6176    0.1280   -9.9005 C.3       10 UNK         0.0237 
     61 CB         33.4898    0.2470  -11.1689 C.3       10 UNK        -0.1985 
     62 C          32.7256   -1.2851   -9.2797 C.2       10 UNK         0.4970 
     63 O          33.8360   -1.8135   -9.2052 O.2       10 UNK        -0.4914 
     64 N          31.6008   -1.8682   -8.8415 N.am      11 UNK        -0.4285 
     65 CA         31.4837   -3.2539   -8.3443 C.3       11 UNK         0.1007 
     66 C          31.8216   -4.3334   -9.4188 C.2       11 UNK         0.5703 
     67 N          31.6617   -4.0373  -10.7048 N.am      11 UNK        -0.7361 
     68 O          32.1977   -5.4569   -9.0933 O.2       11 UNK        -0.4986 
     69 C69        32.1809   -3.4791   -6.9689 C.3       12 UNK        -0.0947 
     70 S70        31.3719   -2.5035   -5.6625 S.3       12 UNK        -0.2240 
     71 C71        32.2570   -3.0393   -4.1652 C.3       12 UNK         0.0194 
     72 H72        24.1627   -0.5447    1.9550 H         1 UNK         0.0906 
     73 H73        24.6738    0.6923    0.8031 H         1 UNK         0.0906 
     74 H74        23.7145   -0.6834    0.2536 H         1 UNK         0.0906 
     75 H75        24.9743   -2.1963   -0.8700 H         1 UNK         0.3140 
     76 H76        27.7930   -2.1425   -0.7935 H         1 UNK         0.1085 
     77 H77        26.4282   -4.6348    0.3619 H         1 UNK         0.0836 
     78 H78        27.4530   -3.5581    1.2591 H         1 UNK         0.0836 
     79 H79        30.9877   -4.6051    0.5767 H         1 UNK         0.0731 
     80 H80        29.8963   -3.4435    1.2837 H         1 UNK         0.0731 
     81 H81        31.3251   -4.4946   -2.0363 H         1 UNK         0.1312 
     82 H82        31.6892   -0.4730   -3.4598 H         1 UNK         0.1406 
     83 H83        29.8786   -1.2300    0.3447 H         1 UNK         0.1631 
     84 H84        30.7280    1.3371   -2.3203 H         1 UNK         0.0717 
     85 H85        31.1936    1.1874   -0.6441 H         1 UNK         0.0717 
     86 H86        28.1201   -0.4127   -2.5017 H         1 UNK         0.0934 
     87 H87        26.7836    0.4485   -1.8233 H         1 UNK         0.0934 
     88 H88        28.1299    2.5044   -3.2208 H         1 UNK         0.0739 
     89 H89        28.6100   -0.0250   -4.6421 H         1 UNK         0.3093 
     90 H90        29.7021    1.5311   -7.6103 H         1 UNK         0.0818 
     91 H91        31.7497    1.8744   -6.3716 H         1 UNK         0.0819 
     92 H92        31.8515    0.2894   -7.1102 H         1 UNK         0.0819 
     93 H93        31.4948    0.4407   -5.4023 H         1 UNK         0.0819 
     94 H94        29.7128   -1.1777   -6.5161 H         1 UNK         0.3041 
     95 H95        26.3813   -1.8579   -7.5649 H         1 UNK         0.0784 
     96 H96        27.0540   -2.2184   -9.7590 H         1 UNK         0.0793 
     97 H97        28.7438   -2.4610   -9.3687 H         1 UNK         0.0793 
     98 H98        27.5522   -3.7088   -9.0037 H         1 UNK         0.0793 
     99 H99        28.0376   -3.8659   -6.8617 H         1 UNK         0.3024 
    100 H100       26.7288   -4.4995   -4.5245 H         1 UNK         0.1171 
    101 H101       28.7391   -5.8233   -4.0422 H         1 UNK         0.0786 
    102 H102       28.8474   -5.2350   -5.6855 H         1 UNK         0.0786 
    103 H103       29.7879   -4.4711   -4.4097 H         1 UNK         0.0786 
    104 H104       28.6403   -3.4469   -2.5416 H         1 UNK         0.2977 
    105 H105       26.3205   -0.1060   -4.8586 H         1 UNK         0.3127 
    106 H106       23.7544    1.0330   -4.3440 H         1 UNK         0.0770 
    107 H107       24.5629   -1.1300   -6.3514 H         1 UNK         0.0814 
    108 H108       22.9355   -0.8061   -5.7776 H         1 UNK         0.0814 
    109 H109       24.1530   -1.4022   -4.6594 H         1 UNK         0.0814 
    110 H110       25.8248    1.1430   -7.3115 H         1 UNK         0.2983 
    111 H111       23.8809    3.0415   -8.5654 H         1 UNK         0.0947 
    112 H112       24.0045    1.6427  -10.6224 H         1 UNK         0.0806 
    113 H113       23.3809    0.6948   -9.2854 H         1 UNK         0.0806 
    114 H114       25.0538    0.4919   -9.8049 H         1 UNK         0.0806 
    115 H115       26.9826    2.8275   -7.5770 H         1 UNK         0.3000 
    116 H116       28.9419    3.7618   -8.0625 H         1 UNK         0.0850 
    117 H117       29.0685    5.8625   -9.2976 H         1 UNK         0.0810 
    118 H118       27.6243    5.8772   -8.3015 H         1 UNK         0.0810 
    119 H119       27.4999    5.5931  -10.0377 H         1 UNK         0.0810 
    120 H120       28.1098    1.3744   -9.5107 H         1 UNK         0.3040 
    121 H121       29.4367    1.6180  -12.1674 H         1 UNK         0.0766 
    122 H122       27.1036    0.8341  -12.1575 H         1 UNK         0.0812 
    123 H123       27.5091   -0.4638  -11.0448 H         1 UNK         0.0812 
    124 H124       28.1685   -0.4605  -12.6761 H         1 UNK         0.0812 
    125 H125       31.0741    1.5681   -9.8446 H         1 UNK         0.3205 
    126 H126       33.0381    0.8063   -9.1569 H         1 UNK         0.0754 
    127 H127       34.5355    0.0213  -10.9556 H         1 UNK         0.0769 
    128 H128       33.4594    1.2567  -11.5787 H         1 UNK         0.0769 
    129 H129       33.1614   -0.4411  -11.9489 H         1 UNK         0.0769 
    130 H130       30.7362   -1.3724   -8.9885 H         1 UNK         0.2981 
    131 H131       30.4212   -3.4123   -8.1677 H         1 UNK         0.0541 
    132 H132       31.3356   -3.1218  -10.9858 H         1 UNK         0.3459 
    133 H133       31.8682   -4.7352  -11.4014 H         1 UNK         0.3459 
    134 H134       32.1228   -4.5269   -6.6700 H         1 UNK         0.0612 
    135 H135       33.2407   -3.2259   -7.0115 H         1 UNK         0.0612 
    136 H136       32.3231   -4.1283   -4.1609 H         1 UNK         0.0624 
    137 H137       33.2796   -2.6616   -4.1979 H         1 UNK         0.0624 
@<TRIPOS>BOND
     1    1    2 1    
     2    1   72 1    
     3    1   73 1    
     4    1   74 1    
     5    2    3 2    
     6    2    4 am   BACKBONE|DICT|INTERRES
     7    4    5 1    
     8    4   75 1    
     9    5    6 1    
    10    5   35 1    
    11    5   76 1    
    12    6    7 1    
    13    6   77 1    
    14    6   78 1    
    15    7    8 1    
    16    8    9 1    
    17    8   79 1    
    18    8   80 1    
    19    9   10 ar   
    20    9   14 ar   
    21   10   11 ar   
    22   10   81 1    
    23   11   12 ar   
    24   11   71 1    
    25   12   13 ar   
    26   12   82 1    
    27   13   14 ar   
    28   13   15 1    
    29   14   83 1    
    30   15   16 1    
    31   15   84 1    
    32   15   85 1    
    33   16   17 1    
    34   17   18 1    
    35   17   86 1    
    36   17   87 1    
    37   18   19 1    
    38   18   37 1    
    39   18   88 1    
    40   19   20 am   BACKBONE|DICT|INTERRES
    41   19   89 1    
    42   20   21 2    
    43   20   22 1    
    44   22   23 1    
    45   22   24 1    
    46   22   90 1    
    47   23   91 1    
    48   23   92 1    
    49   23   93 1    
    50   24   25 am   BACKBONE|DICT|INTERRES
    51   24   94 1    
    52   25   26 2    
    53   25   27 1    
    54   27   28 1    
    55   27   29 1    
    56   27   95 1    
    57   28   96 1    
    58   28   97 1    
    59   28   98 1    
    60   29   30 am   BACKBONE|DICT|INTERRES
    61   29   99 1    
    62   30   31 2    
    63   30   32 1    
    64   32   33 1    
    65   32   34 1    
    66   32  100 1    
    67   33  101 1    
    68   33  102 1    
    69   33  103 1    
    70   34   35 am   BACKBONE|DICT|INTERRES
    71   34  104 1    
    72   35   36 2    
    73   37   38 2    
    74   37   39 am   BACKBONE|DICT|INTERRES
    75   39   40 1    
    76   39  105 1    
    77   40   41 1    
    78   40   42 1    
    79   40  106 1    
    80   41  107 1    
    81   41  108 1    
    82   41  109 1    
    83   42   43 2    
    84   42   44 am   BACKBONE|DICT|INTERRES
    85   44   45 1    
    86   44  110 1    
    87   45   46 1    
    88   45   47 1    
    89   45  111 1    
    90   46  112 1    
    91   46  113 1    
    92   46  114 1    
    93   47   48 2    
    94   47   49 am   BACKBONE|DICT|INTERRES
    95   49   50 1    
    96   49  115 1    
    97   50   51 1    
    98   50   52 1    
    99   50  116 1    
   100   51  117 1    
   101   51  118 1    
   102   51  119 1    
   103   52   53 2    
   104   52   54 am   BACKBONE|DICT|INTERRES
   105   54   55 1    
   106   54  120 1    
   107   55   56 1    
   108   55   57 1    
   109   55  121 1    
   110   56  122 1    
   111   56  123 1    
   112   56  124 1    
   113   57   58 2    
   114   57   59 am   BACKBONE|DICT|INTERRES
   115   59   60 1    
   116   59  125 1    
   117   60   61 1    
   118   60   62 1    
   119   60  126 1    
   120   61  127 1    
   121   61  128 1    
   122   61  129 1    
   123   62   63 2    
   124   62   64 am   BACKBONE|DICT|INTERRES
   125   64   65 1    
   126   64  130 1    
   127   65   66 1    
   128   65   69 1    
   129   65  131 1    
   130   66   67 am   BACKBONE|DICT|INTERRES
   131   66   68 2    
   132   67  132 1    
   133   67  133 1    
   134   69   70 1    
   135   69  134 1    
   136   69  135 1    
   137   70   71 1    
   138   71  136 1    
   139   71  137 1    
@<TRIPOS>SUBSTRUCTURE
     1 UNK         1 GROUP             0       ****    0 ROOT    
