@<TRIPOS>MOLECULE
3R137
137   139    1
SMALL
USER_CHARGES


@<TRIPOS>ATOM
      1 CA         29.6662   -1.4358    2.4909 C.3       0 UNK        -0.2020 
      2 C          29.4737   -1.5015    0.9833 C.2       0 UNK         0.4855 
      3 O          29.8162   -0.5501    0.2814 O.2       0 UNK        -0.5197 
      4 N          28.9302   -2.6189    0.4821 N.am      1 UNK        -0.4892 
      5 CA         28.6713   -2.8658   -0.9456 C.3       1 UNK         0.0835 
      6 C6         28.4127   -4.3685   -1.2283 C.3       12 UNK        -0.0855 
      7 S7         29.8458   -5.3913   -0.7115 S.3       12 UNK        -0.2931 
      8 C8         30.5866   -6.0035   -2.2688 C.3       12 UNK         0.0378 
      9 C9         30.5403   -4.9917   -3.4058 C.ar      12 UNK        -0.0802 
     10 C10        31.1563   -3.7422   -3.2790 C.ar      12 UNK        -0.0944 
     11 C11        31.0010   -2.7693   -4.2716 C.ar      12 UNK        -0.0787 
     12 C12        30.2669   -3.0816   -5.4205 C.ar      12 UNK        -0.0862 
     13 C13        29.6904   -4.3445   -5.5829 C.ar      12 UNK        -0.0733 
     14 C14        29.8306   -5.2950   -4.5706 C.ar      12 UNK        -0.0832 
     15 C15        28.9122   -4.6843   -6.8465 C.3       12 UNK         0.0240 
     16 S16        27.1430   -5.0002   -6.5333 S.3       12 UNK        -0.2522 
     17 C17        26.5591   -3.4282   -5.8147 C.3       12 UNK        -0.0967 
     18 CA         26.3392   -2.3221   -6.8847 C.3       5 UNK         0.0660 
     19 N          25.0564   -1.6294   -6.7249 N.am      5 UNK        -0.4015 
     20 C          24.5831   -0.6878   -7.5557 C.2       4 UNK         0.4946 
     21 O          25.1720   -0.3096   -8.5680 O.2       4 UNK        -0.5353 
     22 CA         23.2366   -0.0324   -7.2066 C.3       4 UNK         0.0277 
     23 CB         22.1122   -0.6436   -8.0582 C.3       4 UNK        -0.1981 
     24 N          22.8570   -0.0914   -5.7913 N.am      4 UNK        -0.4209 
     25 C          23.5519    0.4309   -4.7710 C.2       3 UNK         0.4942 
     26 O          24.6630    0.9521   -4.8967 O.2       3 UNK        -0.5208 
     27 CA         22.8770    0.4069   -3.3870 C.3       3 UNK         0.0250 
     28 CB         21.7251   -0.6175   -3.2477 C.3       3 UNK        -0.1990 
     29 N          23.8568    0.2667   -2.3065 N.am      3 UNK        -0.4232 
     30 C          24.6003   -0.8070   -2.0026 C.2       2 UNK         0.4993 
     31 O          24.5199   -1.8988   -2.5719 O.2       2 UNK        -0.5286 
     32 CA         25.5530   -0.6047   -0.8090 C.3       2 UNK         0.0209 
     33 CB         24.7586   -0.4977    0.5063 C.3       2 UNK        -0.1931 
     34 N          26.5778   -1.6363   -0.6340 N.am      2 UNK        -0.4546 
     35 C          27.5473   -1.9632   -1.5006 C.2       1 UNK         0.5154 
     36 O          27.6239   -1.5333   -2.6517 O.2       1 UNK        -0.5181 
     37 C          27.5228   -1.3368   -6.9212 C.2       5 UNK         0.5014 
     38 O          28.3395   -1.4036   -7.8409 O.2       5 UNK        -0.5248 
     39 N          27.5698   -0.4160   -5.9464 N.am      6 UNK        -0.4434 
     40 CA         28.6057    0.6121   -5.8321 C.3       6 UNK         0.0363 
     41 CB         28.4263    1.3920   -4.5207 C.3       6 UNK        -0.1936 
     42 C          28.6406    1.5718   -7.0290 C.2       6 UNK         0.5081 
     43 O          29.7283    1.9576   -7.4554 O.2       6 UNK        -0.5248 
     44 N          27.4598    1.9117   -7.5632 N.am      7 UNK        -0.4718 
     45 CA         27.3046    2.7322   -8.7637 C.3       7 UNK         0.0273 
     46 CB         25.8509    3.2198   -8.8749 C.3       7 UNK        -0.1935 
     47 C          27.7355    1.9844  -10.0354 C.2       7 UNK         0.5018 
     48 O          28.4566    2.5571  -10.8520 O.2       7 UNK        -0.5186 
     49 N          27.3056    0.7211  -10.1704 N.am      8 UNK        -0.4240 
     50 CA         27.6197   -0.1552  -11.3016 C.3       8 UNK         0.0235 
     51 CB         26.7706   -1.4342  -11.2163 C.3       8 UNK        -0.2000 
     52 C          29.1134   -0.5019  -11.4015 C.2       8 UNK         0.4941 
     53 O          29.6754   -0.4390  -12.4957 O.2       8 UNK        -0.5273 
     54 N          29.7308   -0.8489  -10.2642 N.am      9 UNK        -0.4262 
     55 CA         31.1584   -1.1662  -10.1687 C.3       9 UNK         0.0264 
     56 CB         31.3961   -2.0202   -8.9159 C.3       9 UNK        -0.1955 
     57 C          32.0633    0.0786  -10.1382 C.2       9 UNK         0.5031 
     58 O          33.2654   -0.0617  -10.3687 O.2       9 UNK        -0.5390 
     59 N          31.4850    1.2526   -9.8403 N.am      10 UNK        -0.4204 
     60 CA         32.1439    2.5462   -9.6268 C.3       10 UNK         0.0237 
     61 CB         32.7903    3.0660  -10.9291 C.3       10 UNK        -0.1985 
     62 C          33.1162    2.5008   -8.4317 C.2       10 UNK         0.4970 
     63 O          34.2812    2.8829   -8.5627 O.2       10 UNK        -0.4914 
     64 N          32.6142    2.0104   -7.2913 N.am      11 UNK        -0.4285 
     65 CA         33.3454    1.9249   -6.0186 C.3       11 UNK         0.1007 
     66 C          33.6597    3.3258   -5.4248 C.2       11 UNK         0.5703 
     67 N          34.7907    3.4722   -4.7478 N.am      11 UNK        -0.7361 
     68 O          32.8732    4.2652   -5.5353 O.2       11 UNK        -0.4986 
     69 C69        32.5941    1.0516   -4.9804 C.3       12 UNK        -0.0947 
     70 S70        32.4360   -0.6893   -5.4944 S.3       12 UNK        -0.2240 
     71 C71        31.5469   -1.3616   -4.0518 C.3       12 UNK         0.0194 
     72 H72        30.7200   -1.2918    2.7281 H         1 UNK         0.0906 
     73 H73        29.1062   -0.5973    2.9041 H         1 UNK         0.0906 
     74 H74        29.3289   -2.3461    2.9863 H         1 UNK         0.0906 
     75 H75        28.7061   -3.3844    1.1025 H         1 UNK         0.3140 
     76 H76        29.5717   -2.5696   -1.4841 H         1 UNK         0.1085 
     77 H77        28.1866   -4.5348   -2.2825 H         1 UNK         0.0836 
     78 H78        27.5326   -4.7118   -0.6816 H         1 UNK         0.0836 
     79 H79        31.6241   -6.2829   -2.0809 H         1 UNK         0.0731 
     80 H80        30.0714   -6.9229   -2.5516 H         1 UNK         0.0731 
     81 H81        31.7000   -3.5084   -2.3736 H         1 UNK         0.1312 
     82 H82        30.1359   -2.3319   -6.1848 H         1 UNK         0.1406 
     83 H83        29.3584   -6.2619   -4.6827 H         1 UNK         0.1631 
     84 H84        29.3484   -5.5772   -7.2964 H         1 UNK         0.0717 
     85 H85        29.0110   -3.8980   -7.5938 H         1 UNK         0.0717 
     86 H86        27.2282   -3.1159   -5.0092 H         1 UNK         0.0934 
     87 H87        25.6191   -3.6620   -5.3121 H         1 UNK         0.0934 
     88 H88        26.2913   -2.7891   -7.8710 H         1 UNK         0.0739 
     89 H89        24.5103   -1.8619   -5.9086 H         1 UNK         0.3093 
     90 H90        23.3254    1.0236   -7.4704 H         1 UNK         0.0818 
     91 H91        21.1709   -0.1122   -7.9165 H         1 UNK         0.0819 
     92 H92        22.3535   -0.5893   -9.1210 H         1 UNK         0.0819 
     93 H93        21.9468   -1.6941   -7.8157 H         1 UNK         0.0819 
     94 H94        21.9568   -0.5011   -5.5863 H         1 UNK         0.3041 
     95 H95        22.4411    1.3988   -3.2593 H         1 UNK         0.0784 
     96 H96        20.8885   -0.3691   -3.9018 H         1 UNK         0.0793 
     97 H97        22.0443   -1.6325   -3.4873 H         1 UNK         0.0793 
     98 H98        21.3330   -0.6287   -2.2305 H         1 UNK         0.0793 
     99 H99        24.0231    1.1139   -1.7812 H         1 UNK         0.3024 
    100 H100       26.0833    0.3358   -0.9760 H         1 UNK         0.1171 
    101 H101       25.4136   -0.2797    1.3503 H         1 UNK         0.0786 
    102 H102       24.2237   -1.4225    0.7268 H         1 UNK         0.0786 
    103 H103       24.0186    0.3026    0.4661 H         1 UNK         0.0786 
    104 H104       26.6218   -2.0632    0.2791 H         1 UNK         0.2977 
    105 H105       26.8468   -0.4126   -5.2385 H         1 UNK         0.3127 
    106 H106       29.5692    0.1032   -5.8020 H         1 UNK         0.0770 
    107 H107       27.4411    1.8562   -4.4591 H         1 UNK         0.0814 
    108 H108       29.1687    2.1863   -4.4321 H         1 UNK         0.0814 
    109 H109       28.5460    0.7432   -3.6537 H         1 UNK         0.0814 
    110 H110       26.6203    1.5215   -7.1583 H         1 UNK         0.2983 
    111 H111       27.9491    3.6085   -8.6606 H         1 UNK         0.0947 
    112 H112       25.7220    3.8601   -9.7486 H         1 UNK         0.0806 
    113 H113       25.5604    3.8030   -8.0009 H         1 UNK         0.0806 
    114 H114       25.1489    2.3912   -8.9733 H         1 UNK         0.0806 
    115 H115       26.6778    0.3405   -9.4644 H         1 UNK         0.3000 
    116 H116       27.3430    0.3751  -12.2153 H         1 UNK         0.0850 
    117 H117       26.9783   -2.0997  -12.0552 H         1 UNK         0.0810 
    118 H118       25.7053   -1.2038  -11.2404 H         1 UNK         0.0810 
    119 H119       26.9695   -1.9900  -10.2991 H         1 UNK         0.0810 
    120 H120       29.1836   -0.9280   -9.4067 H         1 UNK         0.3040 
    121 H121       31.4444   -1.7581  -11.0408 H         1 UNK         0.0766 
    122 H122       32.4453   -2.3040   -8.8229 H         1 UNK         0.0812 
    123 H123       31.1265   -1.4700   -8.0159 H         1 UNK         0.0812 
    124 H124       30.8106   -2.9387   -8.9413 H         1 UNK         0.0812 
    125 H125       30.4941    1.2418   -9.6368 H         1 UNK         0.3205 
    126 H126       31.3544    3.2478   -9.3526 H         1 UNK         0.0754 
    127 H127       33.1793    4.0758  -10.7935 H         1 UNK         0.0769 
    128 H128       32.0643    3.1044  -11.7414 H         1 UNK         0.0769 
    129 H129       33.6219    2.4389  -11.2516 H         1 UNK         0.0769 
    130 H130       31.6222    1.7929   -7.2608 H         1 UNK         0.2981 
    131 H131       34.3000    1.4404   -6.2338 H         1 UNK         0.0541 
    132 H132       35.4375    2.7064   -4.6401 H         1 UNK         0.3459 
    133 H133       35.0055    4.3696   -4.3419 H         1 UNK         0.3459 
    134 H134       31.5981    1.4564   -4.7927 H         1 UNK         0.0612 
    135 H135       33.1173    1.0618   -4.0221 H         1 UNK         0.0612 
    136 H136       32.2198   -1.3397   -3.1932 H         1 UNK         0.0624 
    137 H137       30.7095   -0.7084   -3.8042 H         1 UNK         0.0624 
@<TRIPOS>BOND
     1    1    2 1    
     2    1   72 1    
     3    1   73 1    
     4    1   74 1    
     5    2    3 2    
     6    2    4 am   BACKBONE|DICT|INTERRES
     7    4    5 1    
     8    4   75 1    
     9    5    6 1    
    10    5   35 1    
    11    5   76 1    
    12    6    7 1    
    13    6   77 1    
    14    6   78 1    
    15    7    8 1    
    16    8    9 1    
    17    8   79 1    
    18    8   80 1    
    19    9   10 ar   
    20    9   14 ar   
    21   10   11 ar   
    22   10   81 1    
    23   11   12 ar   
    24   11   71 1    
    25   12   13 ar   
    26   12   82 1    
    27   13   14 ar   
    28   13   15 1    
    29   14   83 1    
    30   15   16 1    
    31   15   84 1    
    32   15   85 1    
    33   16   17 1    
    34   17   18 1    
    35   17   86 1    
    36   17   87 1    
    37   18   19 1    
    38   18   37 1    
    39   18   88 1    
    40   19   20 am   BACKBONE|DICT|INTERRES
    41   19   89 1    
    42   20   21 2    
    43   20   22 1    
    44   22   23 1    
    45   22   24 1    
    46   22   90 1    
    47   23   91 1    
    48   23   92 1    
    49   23   93 1    
    50   24   25 am   BACKBONE|DICT|INTERRES
    51   24   94 1    
    52   25   26 2    
    53   25   27 1    
    54   27   28 1    
    55   27   29 1    
    56   27   95 1    
    57   28   96 1    
    58   28   97 1    
    59   28   98 1    
    60   29   30 am   BACKBONE|DICT|INTERRES
    61   29   99 1    
    62   30   31 2    
    63   30   32 1    
    64   32   33 1    
    65   32   34 1    
    66   32  100 1    
    67   33  101 1    
    68   33  102 1    
    69   33  103 1    
    70   34   35 am   BACKBONE|DICT|INTERRES
    71   34  104 1    
    72   35   36 2    
    73   37   38 2    
    74   37   39 am   BACKBONE|DICT|INTERRES
    75   39   40 1    
    76   39  105 1    
    77   40   41 1    
    78   40   42 1    
    79   40  106 1    
    80   41  107 1    
    81   41  108 1    
    82   41  109 1    
    83   42   43 2    
    84   42   44 am   BACKBONE|DICT|INTERRES
    85   44   45 1    
    86   44  110 1    
    87   45   46 1    
    88   45   47 1    
    89   45  111 1    
    90   46  112 1    
    91   46  113 1    
    92   46  114 1    
    93   47   48 2    
    94   47   49 am   BACKBONE|DICT|INTERRES
    95   49   50 1    
    96   49  115 1    
    97   50   51 1    
    98   50   52 1    
    99   50  116 1    
   100   51  117 1    
   101   51  118 1    
   102   51  119 1    
   103   52   53 2    
   104   52   54 am   BACKBONE|DICT|INTERRES
   105   54   55 1    
   106   54  120 1    
   107   55   56 1    
   108   55   57 1    
   109   55  121 1    
   110   56  122 1    
   111   56  123 1    
   112   56  124 1    
   113   57   58 2    
   114   57   59 am   BACKBONE|DICT|INTERRES
   115   59   60 1    
   116   59  125 1    
   117   60   61 1    
   118   60   62 1    
   119   60  126 1    
   120   61  127 1    
   121   61  128 1    
   122   61  129 1    
   123   62   63 2    
   124   62   64 am   BACKBONE|DICT|INTERRES
   125   64   65 1    
   126   64  130 1    
   127   65   66 1    
   128   65   69 1    
   129   65  131 1    
   130   66   67 am   BACKBONE|DICT|INTERRES
   131   66   68 2    
   132   67  132 1    
   133   67  133 1    
   134   69   70 1    
   135   69  134 1    
   136   69  135 1    
   137   70   71 1    
   138   71  136 1    
   139   71  137 1    
@<TRIPOS>SUBSTRUCTURE
     1 UNK         1 GROUP             0       ****    0 ROOT    
