@<TRIPOS>MOLECULE
3R137
137   139    1
SMALL
USER_CHARGES


@<TRIPOS>ATOM
      1 CA         25.5671    0.4295    3.9762 C.3       0 UNK        -0.2020 
      2 C          26.1676   -0.3300    2.8022 C.2       0 UNK         0.4855 
      3 O          26.3533   -1.5440    2.8945 O.2       0 UNK        -0.5197 
      4 N          26.4762    0.3798    1.7075 N.am      1 UNK        -0.4892 
      5 CA         27.0101   -0.1526    0.4454 C.3       1 UNK         0.0835 
      6 C6         28.3891   -0.8564    0.6308 C.3       12 UNK        -0.0855 
      7 S7         29.4732   -0.6402   -0.8180 S.3       12 UNK        -0.2931 
      8 C8         30.0015   -2.3469   -1.1839 C.3       12 UNK         0.0378 
      9 C9         30.4478   -2.5117   -2.6338 C.ar      12 UNK        -0.0802 
     10 C10        31.3887   -1.6423   -3.1982 C.ar      12 UNK        -0.0944 
     11 C11        31.7974   -1.8024   -4.5248 C.ar      12 UNK        -0.0787 
     12 C12        31.2618   -2.8408   -5.2908 C.ar      12 UNK        -0.0862 
     13 C13        30.3333   -3.7268   -4.7390 C.ar      12 UNK        -0.0733 
     14 C14        29.9376   -3.5599   -3.4081 C.ar      12 UNK        -0.0832 
     15 C15        29.8006   -4.8966   -5.5591 C.3       12 UNK         0.0240 
     16 S16        29.0674   -4.3897   -7.1493 S.3       12 UNK        -0.2522 
     17 C17        27.5573   -3.5272   -6.6107 C.3       12 UNK        -0.0967 
     18 CA         27.2671   -2.2555   -7.4477 C.3       5 UNK         0.0660 
     19 N          25.8289   -1.9756   -7.4872 N.am      5 UNK        -0.4015 
     20 C          25.2181   -1.0178   -8.1941 C.2       4 UNK         0.4946 
     21 O          25.8130   -0.1822   -8.8706 O.2       4 UNK        -0.5353 
     22 CA         23.6817   -0.9522   -8.1169 C.3       4 UNK         0.0277 
     23 CB         23.0276   -2.0601   -8.9662 C.3       4 UNK        -0.1981 
     24 N          23.1613   -0.9244   -6.7423 N.am      4 UNK        -0.4209 
     25 C          23.2219   -1.8889   -5.8146 C.2       3 UNK         0.4942 
     26 O          23.6648   -3.0228   -6.0192 O.2       3 UNK        -0.5208 
     27 CA         22.7297   -1.5054   -4.4101 C.3       3 UNK         0.0250 
     28 CB         21.2655   -1.9320   -4.2183 C.3       3 UNK        -0.1990 
     29 N          23.5507   -2.1050   -3.3552 N.am      3 UNK        -0.4232 
     30 C          24.8678   -1.9137   -3.1959 C.2       2 UNK         0.4993 
     31 O          25.5605   -1.1921   -3.9208 O.2       2 UNK        -0.5286 
     32 CA         25.5330   -2.7016   -2.0588 C.3       2 UNK         0.0209 
     33 CB         26.3594   -3.8612   -2.6308 C.3       2 UNK        -0.1931 
     34 N          26.3984   -1.8385   -1.2537 N.am      2 UNK        -0.4546 
     35 C          25.9533   -0.9953   -0.3138 C.2       1 UNK         0.5154 
     36 O          24.7542   -0.8601   -0.0508 O.2       1 UNK        -0.5181 
     37 C          28.1007   -1.0442   -6.9784 C.2       5 UNK         0.5014 
     38 O          29.0543   -0.6537   -7.6599 O.2       5 UNK        -0.5248 
     39 N          27.7007   -0.4452   -5.8468 N.am      6 UNK        -0.4434 
     40 CA         28.3350    0.7554   -5.3016 C.3       6 UNK         0.0363 
     41 CB         28.0311    0.8487   -3.8014 C.3       6 UNK        -0.1936 
     42 C          27.8783    2.0363   -6.0166 C.2       6 UNK         0.5081 
     43 O          28.6528    2.9890   -6.0884 O.2       6 UNK        -0.5248 
     44 N          26.6404    2.0420   -6.5338 N.am      7 UNK        -0.4718 
     45 CA         26.0365    3.1783   -7.2371 C.3       7 UNK         0.0273 
     46 CB         24.5199    2.9670   -7.3659 C.3       7 UNK        -0.1935 
     47 C          26.6770    3.4266   -8.6115 C.2       7 UNK         0.5018 
     48 O          26.9815    4.5735   -8.9398 O.2       7 UNK        -0.5186 
     49 N          26.9027    2.3463   -9.3722 N.am      8 UNK        -0.4240 
     50 CA         27.6543    2.3580  -10.6297 C.3       8 UNK         0.0235 
     51 CB         27.3126    1.0923  -11.4328 C.3       8 UNK        -0.2000 
     52 C          29.1750    2.4519  -10.4107 C.2       8 UNK         0.4941 
     53 O          29.8897    2.7849  -11.3565 O.2       8 UNK        -0.5273 
     54 N          29.6283    2.1515   -9.1831 N.am      9 UNK        -0.4262 
     55 CA         31.0145    2.0987   -8.7152 C.3       9 UNK         0.0264 
     56 CB         31.6647    3.4979   -8.7404 C.3       9 UNK        -0.1955 
     57 C          31.8185    1.0385   -9.4834 C.2       9 UNK         0.5031 
     58 O          32.7578    1.3720  -10.2074 O.2       9 UNK        -0.5390 
     59 N          31.4150   -0.2292   -9.3182 N.am      10 UNK        -0.4204 
     60 CA         32.0214   -1.3941   -9.9761 C.3       10 UNK         0.0237 
     61 CB         31.1352   -2.6224   -9.7205 C.3       10 UNK        -0.1985 
     62 C          33.4792   -1.6854   -9.5607 C.2       10 UNK         0.4970 
     63 O          34.1748   -2.4022  -10.2813 O.2       10 UNK        -0.4914 
     64 N          33.9079   -1.1425   -8.4151 N.am      11 UNK        -0.4285 
     65 CA         35.2758   -1.2083   -7.8857 C.3       11 UNK         0.1007 
     66 C          36.2927   -0.4673   -8.7957 C.2       11 UNK         0.5703 
     67 N          37.4354   -1.0771   -9.0805 N.am      11 UNK        -0.7361 
     68 O          36.0739    0.6712   -9.2043 O.2       11 UNK        -0.4986 
     69 C69        35.3334   -0.6554   -6.4374 C.3       12 UNK        -0.0947 
     70 S70        34.4377   -1.7231   -5.2649 S.3       12 UNK        -0.2240 
     71 C71        32.8335   -0.8752   -5.1350 C.3       12 UNK         0.0194 
     72 H72        26.1987    0.3187    4.8572 H         1 UNK         0.0906 
     73 H73        24.5797    0.0337    4.2126 H         1 UNK         0.0906 
     74 H74        25.4635    1.4938    3.7654 H         1 UNK         0.0906 
     75 H75        26.2658    1.3686    1.6949 H         1 UNK         0.3140 
     76 H76        27.1640    0.7312   -0.1765 H         1 UNK         0.1085 
     77 H77        28.2695   -1.9108    0.8873 H         1 UNK         0.0836 
     78 H78        28.9217   -0.4146    1.4747 H         1 UNK         0.0836 
     79 H79        30.8247   -2.6165   -0.5211 H         1 UNK         0.0731 
     80 H80        29.1858   -3.0364   -0.9617 H         1 UNK         0.0731 
     81 H81        31.8048   -0.8423   -2.6012 H         1 UNK         0.1312 
     82 H82        31.5879   -2.9735   -6.3128 H         1 UNK         0.1406 
     83 H83        29.2445   -4.2624   -2.9676 H         1 UNK         0.1631 
     84 H84        29.0596   -5.4663   -4.9961 H         1 UNK         0.0717 
     85 H85        30.6252   -5.5816   -5.7602 H         1 UNK         0.0717 
     86 H86        26.7420   -4.2452   -6.7158 H         1 UNK         0.0934 
     87 H87        27.6074   -3.2956   -5.5466 H         1 UNK         0.0934 
     88 H88        27.5527   -2.4527   -8.4834 H         1 UNK         0.0739 
     89 H89        25.2270   -2.5772   -6.9290 H         1 UNK         0.3093 
     90 H90        23.3867   -0.0013   -8.5624 H         1 UNK         0.0818 
     91 H91        23.3473   -1.9882  -10.0066 H         1 UNK         0.0819 
     92 H92        23.2892   -3.0598   -8.6189 H         1 UNK         0.0819 
     93 H93        21.9409   -1.9767   -8.9556 H         1 UNK         0.0819 
     94 H94        22.7763   -0.0340   -6.4574 H         1 UNK         0.3041 
     95 H95        22.7971   -0.4212   -4.2968 H         1 UNK         0.0784 
     96 H96        20.6231   -1.4788   -4.9748 H         1 UNK         0.0793 
     97 H97        21.1471   -3.0137   -4.2972 H         1 UNK         0.0793 
     98 H98        20.8844   -1.6217   -3.2451 H         1 UNK         0.0793 
     99 H99        23.0760   -2.7435   -2.7339 H         1 UNK         0.3024 
    100 H100       24.7611   -3.1210   -1.4089 H         1 UNK         0.1171 
    101 H101       27.1238   -3.4951   -3.3129 H         1 UNK         0.0786 
    102 H102       26.8482   -4.4333   -1.8421 H         1 UNK         0.0786 
    103 H103       25.7280   -4.5515   -3.1920 H         1 UNK         0.0786 
    104 H104       27.3838   -1.8325   -1.4768 H         1 UNK         0.2977 
    105 H105       26.9123   -0.8180   -5.3222 H         1 UNK         0.3127 
    106 H106       29.4170    0.6634   -5.4218 H         1 UNK         0.0770 
    107 H107       28.6303    1.6268   -3.3275 H         1 UNK         0.0814 
    108 H108       26.9822    1.0777   -3.6100 H         1 UNK         0.0814 
    109 H109       28.2595   -0.0928   -3.3056 H         1 UNK         0.0814 
    110 H110       26.0839    1.2051   -6.4456 H         1 UNK         0.2983 
    111 H111       26.2020    4.0720   -6.6309 H         1 UNK         0.0947 
    112 H112       24.2827    2.1045   -7.9872 H         1 UNK         0.0806 
    113 H113       24.0464    3.8356   -7.8255 H         1 UNK         0.0806 
    114 H114       24.0529    2.8226   -6.3916 H         1 UNK         0.0806 
    115 H115       26.5656    1.4358   -9.0583 H         1 UNK         0.3000 
    116 H116       27.3476    3.2293  -11.2120 H         1 UNK         0.0850 
    117 H117       27.8089    1.0995  -12.4040 H         1 UNK         0.0810 
    118 H118       26.2407    1.0144  -11.6156 H         1 UNK         0.0810 
    119 H119       27.6291    0.1879  -10.9112 H         1 UNK         0.0810 
    120 H120       28.9369    1.8696   -8.5022 H         1 UNK         0.3040 
    121 H121       30.9769    1.7748   -7.6737 H         1 UNK         0.0766 
    122 H122       31.7501    3.8920   -9.7533 H         1 UNK         0.0812 
    123 H123       32.6704    3.4657   -8.3201 H         1 UNK         0.0812 
    124 H124       31.0877    4.2102   -8.1507 H         1 UNK         0.0812 
    125 H125       30.6025   -0.4076   -8.7278 H         1 UNK         0.3205 
    126 H126       32.0285   -1.1970  -11.0500 H         1 UNK         0.0754 
    127 H127       31.5196   -3.5015  -10.2398 H         1 UNK         0.0769 
    128 H128       30.1150   -2.4593  -10.0691 H         1 UNK         0.0769 
    129 H129       31.0905   -2.8632   -8.6590 H         1 UNK         0.0769 
    130 H130       33.2719   -0.5456   -7.9135 H         1 UNK         0.2981 
    131 H131       35.5578   -2.2628   -7.8588 H         1 UNK         0.0541 
    132 H132       38.1131   -0.6026   -9.6565 H         1 UNK         0.3459 
    133 H133       37.6308   -2.0055   -8.7390 H         1 UNK         0.3459 
    134 H134       34.9459    0.3639   -6.3867 H         1 UNK         0.0612 
    135 H135       36.3672   -0.6045   -6.0905 H         1 UNK         0.0612 
    136 H136       32.9506    0.0299   -4.5371 H         1 UNK         0.0624 
    137 H137       32.4892   -0.5563   -6.1186 H         1 UNK         0.0624 
@<TRIPOS>BOND
     1    1    2 1    
     2    1   72 1    
     3    1   73 1    
     4    1   74 1    
     5    2    3 2    
     6    2    4 am   BACKBONE|DICT|INTERRES
     7    4    5 1    
     8    4   75 1    
     9    5    6 1    
    10    5   35 1    
    11    5   76 1    
    12    6    7 1    
    13    6   77 1    
    14    6   78 1    
    15    7    8 1    
    16    8    9 1    
    17    8   79 1    
    18    8   80 1    
    19    9   10 ar   
    20    9   14 ar   
    21   10   11 ar   
    22   10   81 1    
    23   11   12 ar   
    24   11   71 1    
    25   12   13 ar   
    26   12   82 1    
    27   13   14 ar   
    28   13   15 1    
    29   14   83 1    
    30   15   16 1    
    31   15   84 1    
    32   15   85 1    
    33   16   17 1    
    34   17   18 1    
    35   17   86 1    
    36   17   87 1    
    37   18   19 1    
    38   18   37 1    
    39   18   88 1    
    40   19   20 am   BACKBONE|DICT|INTERRES
    41   19   89 1    
    42   20   21 2    
    43   20   22 1    
    44   22   23 1    
    45   22   24 1    
    46   22   90 1    
    47   23   91 1    
    48   23   92 1    
    49   23   93 1    
    50   24   25 am   BACKBONE|DICT|INTERRES
    51   24   94 1    
    52   25   26 2    
    53   25   27 1    
    54   27   28 1    
    55   27   29 1    
    56   27   95 1    
    57   28   96 1    
    58   28   97 1    
    59   28   98 1    
    60   29   30 am   BACKBONE|DICT|INTERRES
    61   29   99 1    
    62   30   31 2    
    63   30   32 1    
    64   32   33 1    
    65   32   34 1    
    66   32  100 1    
    67   33  101 1    
    68   33  102 1    
    69   33  103 1    
    70   34   35 am   BACKBONE|DICT|INTERRES
    71   34  104 1    
    72   35   36 2    
    73   37   38 2    
    74   37   39 am   BACKBONE|DICT|INTERRES
    75   39   40 1    
    76   39  105 1    
    77   40   41 1    
    78   40   42 1    
    79   40  106 1    
    80   41  107 1    
    81   41  108 1    
    82   41  109 1    
    83   42   43 2    
    84   42   44 am   BACKBONE|DICT|INTERRES
    85   44   45 1    
    86   44  110 1    
    87   45   46 1    
    88   45   47 1    
    89   45  111 1    
    90   46  112 1    
    91   46  113 1    
    92   46  114 1    
    93   47   48 2    
    94   47   49 am   BACKBONE|DICT|INTERRES
    95   49   50 1    
    96   49  115 1    
    97   50   51 1    
    98   50   52 1    
    99   50  116 1    
   100   51  117 1    
   101   51  118 1    
   102   51  119 1    
   103   52   53 2    
   104   52   54 am   BACKBONE|DICT|INTERRES
   105   54   55 1    
   106   54  120 1    
   107   55   56 1    
   108   55   57 1    
   109   55  121 1    
   110   56  122 1    
   111   56  123 1    
   112   56  124 1    
   113   57   58 2    
   114   57   59 am   BACKBONE|DICT|INTERRES
   115   59   60 1    
   116   59  125 1    
   117   60   61 1    
   118   60   62 1    
   119   60  126 1    
   120   61  127 1    
   121   61  128 1    
   122   61  129 1    
   123   62   63 2    
   124   62   64 am   BACKBONE|DICT|INTERRES
   125   64   65 1    
   126   64  130 1    
   127   65   66 1    
   128   65   69 1    
   129   65  131 1    
   130   66   67 am   BACKBONE|DICT|INTERRES
   131   66   68 2    
   132   67  132 1    
   133   67  133 1    
   134   69   70 1    
   135   69  134 1    
   136   69  135 1    
   137   70   71 1    
   138   71  136 1    
   139   71  137 1    
@<TRIPOS>SUBSTRUCTURE
     1 UNK         1 GROUP             0       ****    0 ROOT    
