@<TRIPOS>MOLECULE
3R137
137   139    1
SMALL
USER_CHARGES


@<TRIPOS>ATOM
      1 CA         26.5775   -6.5566   -7.2203 C.3       0 UNK        -0.2020 
      2 C          26.6767   -5.9733   -5.8187 C.2       0 UNK         0.4855 
      3 O          27.6316   -6.2692   -5.1015 O.2       0 UNK        -0.5197 
      4 N          25.6977   -5.1493   -5.4279 N.am      1 UNK        -0.4892 
      5 CA         25.6014   -4.5050   -4.1131 C.3       1 UNK         0.0835 
      6 C6         26.7091   -3.4414   -3.8581 C.3       12 UNK        -0.0855 
      7 S7         27.2550   -3.3910   -2.1193 S.3       12 UNK        -0.2931 
      8 C8         28.7892   -4.3726   -2.1972 C.3       12 UNK         0.0378 
      9 C9         29.9516   -3.5588   -2.7477 C.ar      12 UNK        -0.0802 
     10 C10        30.2978   -3.6303   -4.1010 C.ar      12 UNK        -0.0944 
     11 C11        31.3521   -2.8634   -4.6058 C.ar      12 UNK        -0.0787 
     12 C12        32.0799   -2.0396   -3.7409 C.ar      12 UNK        -0.0862 
     13 C13        31.7376   -1.9533   -2.3882 C.ar      12 UNK        -0.0733 
     14 C14        30.6818   -2.7267   -1.8956 C.ar      12 UNK        -0.0832 
     15 C15        32.4804   -0.9982   -1.4648 C.3       12 UNK         0.0240 
     16 S16        31.3686    0.2635   -0.7594 S.3       12 UNK        -0.2522 
     17 C17        30.9168    1.2533   -2.2284 C.3       12 UNK        -0.0967 
     18 CA         29.6791    0.7164   -3.0059 C.3       5 UNK         0.0660 
     19 N          28.5244    0.4028   -2.1588 N.am      5 UNK        -0.4015 
     20 C          27.7589    1.2695   -1.4839 C.2       4 UNK         0.4946 
     21 O          27.9442    2.4876   -1.4415 O.2       4 UNK        -0.5353 
     22 CA         26.5458    0.6551   -0.7637 C.3       4 UNK         0.0277 
     23 CB         26.3640    1.2578    0.6407 C.3       4 UNK        -0.1981 
     24 N          25.2930    0.7984   -1.5150 N.am      4 UNK        -0.4209 
     25 C          25.0745    0.4066   -2.7780 C.2       3 UNK         0.4942 
     26 O          25.9402   -0.0424   -3.5354 O.2       3 UNK        -0.5208 
     27 CA         23.6361    0.5094   -3.2896 C.3       3 UNK         0.0250 
     28 CB         23.4186    1.7866   -4.1170 C.3       3 UNK        -0.1990 
     29 N          23.4118   -0.6643   -4.1216 N.am      3 UNK        -0.4232 
     30 C          22.2731   -1.3549   -4.2295 C.2       2 UNK         0.4993 
     31 O          21.2077   -1.0113   -3.7162 O.2       2 UNK        -0.5286 
     32 CA         22.3374   -2.6624   -5.0397 C.3       2 UNK         0.0209 
     33 CB         21.9316   -2.4074   -6.5009 C.3       2 UNK        -0.1931 
     34 N          23.6611   -3.2980   -5.0119 N.am      2 UNK        -0.4546 
     35 C          24.1920   -3.9105   -3.9391 C.2       1 UNK         0.5154 
     36 O          23.6019   -4.0379   -2.8660 O.2       1 UNK        -0.5181 
     37 C          29.3036    1.6058   -4.2137 C.2       5 UNK         0.5014 
     38 O          30.1098    2.4382   -4.6330 O.2       5 UNK        -0.5248 
     39 N          28.0935    1.4187   -4.7589 N.am      6 UNK        -0.4434 
     40 CA         27.5580    2.2015   -5.8725 C.3       6 UNK         0.0363 
     41 CB         26.8269    3.4433   -5.3253 C.3       6 UNK        -0.1936 
     42 C          26.6860    1.3447   -6.8048 C.2       6 UNK         0.5081 
     43 O          25.7655    1.8715   -7.4308 O.2       6 UNK        -0.5248 
     44 N          26.9899    0.0415   -6.9053 N.am      7 UNK        -0.4718 
     45 CA         26.3355   -0.8816   -7.8425 C.3       7 UNK         0.0273 
     46 CB         26.6653   -2.3296   -7.4519 C.3       7 UNK        -0.1935 
     47 C          26.7287   -0.6295   -9.3091 C.2       7 UNK         0.5018 
     48 O          25.9279   -0.8928  -10.2069 O.2       7 UNK        -0.5186 
     49 N          27.9480   -0.1253   -9.5183 N.am      8 UNK        -0.4240 
     50 CA         28.5325    0.2472  -10.7994 C.3       8 UNK         0.0235 
     51 CB         29.0501   -1.0094  -11.5258 C.3       8 UNK        -0.2000 
     52 C          29.6774    1.2232  -10.5134 C.2       8 UNK         0.4941 
     53 O          30.1507    1.2868   -9.3753 O.2       8 UNK        -0.5273 
     54 N          30.1468    1.9267  -11.5533 N.am      9 UNK        -0.4262 
     55 CA         31.2803    2.8614  -11.4846 C.3       9 UNK         0.0264 
     56 CB         31.4677    3.5420  -12.8501 C.3       9 UNK        -0.1955 
     57 C          32.5980    2.2101  -11.0209 C.2       9 UNK         0.5031 
     58 O          33.4133    2.8770  -10.3823 O.2       9 UNK        -0.5390 
     59 N          32.7540    0.9078  -11.3010 N.am      10 UNK        -0.4204 
     60 CA         33.8527    0.0571  -10.8374 C.3       10 UNK         0.0237 
     61 CB         33.7217   -1.3284  -11.4913 C.3       10 UNK        -0.1985 
     62 C          33.9432   -0.0819   -9.3049 C.2       10 UNK         0.4970 
     63 O          35.0283   -0.3801   -8.8041 O.2       10 UNK        -0.4914 
     64 N          32.8311    0.1402   -8.5892 N.am      11 UNK        -0.4285 
     65 CA         32.7920    0.1790   -7.1206 C.3       11 UNK         0.1007 
     66 C          33.3495    1.4963   -6.5056 C.2       11 UNK         0.5703 
     67 N          33.6306    2.5380   -7.2825 N.am      11 UNK        -0.7361 
     68 O          33.5585    1.5621   -5.2967 O.2       11 UNK        -0.4986 
     69 C69        31.3803   -0.1441   -6.5647 C.3       12 UNK        -0.0947 
     70 S70        30.7265   -1.7645   -7.0917 S.3       12 UNK        -0.2240 
     71 C71        31.7051   -2.9303   -6.0852 C.3       12 UNK         0.0194 
     72 H72        27.4515   -6.2721   -7.8057 H         1 UNK         0.0906 
     73 H73        26.5393   -7.6446   -7.1719 H         1 UNK         0.0906 
     74 H74        25.6896   -6.2088   -7.7478 H         1 UNK         0.0906 
     75 H75        24.8947   -5.0253   -6.0288 H         1 UNK         0.3140 
     76 H76        25.6999   -5.3043   -3.3746 H         1 UNK         0.1085 
     77 H77        27.5763   -3.6287   -4.4873 H         1 UNK         0.0836 
     78 H78        26.3826   -2.4423   -4.1424 H         1 UNK         0.0836 
     79 H79        29.0327   -4.7221   -1.1927 H         1 UNK         0.0731 
     80 H80        28.6262   -5.2695   -2.7964 H         1 UNK         0.0731 
     81 H81        29.7423   -4.2775   -4.7662 H         1 UNK         0.1312 
     82 H82        32.8951   -1.4434   -4.1281 H         1 UNK         0.1406 
     83 H83        30.4109   -2.6578   -0.8505 H         1 UNK         0.1631 
     84 H84        33.3025   -0.5037   -1.9847 H         1 UNK         0.0717 
     85 H85        32.9285   -1.5691   -0.6506 H         1 UNK         0.0717 
     86 H86        30.7292    2.2739   -1.8899 H         1 UNK         0.0934 
     87 H87        31.7843    1.3127   -2.8891 H         1 UNK         0.0934 
     88 H88        29.9576   -0.2351   -3.4545 H         1 UNK         0.0739 
     89 H89        28.2479   -0.5696   -2.1574 H         1 UNK         0.3093 
     90 H90        26.7273   -0.4150   -0.6406 H         1 UNK         0.0818 
     91 H91        25.5801    0.7436    1.1970 H         1 UNK         0.0819 
     92 H92        27.2823    1.1712    1.2232 H         1 UNK         0.0819 
     93 H93        26.1061    2.3169    0.5964 H         1 UNK         0.0819 
     94 H94        24.5162    1.1840   -0.9979 H         1 UNK         0.3041 
     95 H95        22.9517    0.4991   -2.4383 H         1 UNK         0.0784 
     96 H96        22.3822    1.8707   -4.4440 H         1 UNK         0.0793 
     97 H97        23.6493    2.6785   -3.5331 H         1 UNK         0.0793 
     98 H98        24.0484    1.8002   -5.0072 H         1 UNK         0.0793 
     99 H99        24.2573   -1.0353   -4.5347 H         1 UNK         0.3024 
    100 H100       21.6160   -3.3536   -4.5970 H         1 UNK         0.1171 
    101 H101       22.6243   -1.7301   -7.0024 H         1 UNK         0.0786 
    102 H102       20.9394   -1.9570   -6.5564 H         1 UNK         0.0786 
    103 H103       21.8950   -3.3357   -7.0714 H         1 UNK         0.0786 
    104 H104       24.2133   -3.2139   -5.8514 H         1 UNK         0.2977 
    105 H105       27.4470    0.7546   -4.3332 H         1 UNK         0.3127 
    106 H106       28.3833    2.5467   -6.4993 H         1 UNK         0.0770 
    107 H107       26.0045    3.1655   -4.6671 H         1 UNK         0.0814 
    108 H108       26.4165    4.0532   -6.1309 H         1 UNK         0.0814 
    109 H109       27.5049    4.0794   -4.7561 H         1 UNK         0.0814 
    110 H110       27.7630   -0.3199   -6.3653 H         1 UNK         0.2983 
    111 H111       25.2548   -0.7417   -7.7649 H         1 UNK         0.0947 
    112 H112       26.1941   -3.0379   -8.1349 H         1 UNK         0.0806 
    113 H113       26.3014   -2.5534   -6.4540 H         1 UNK         0.0806 
    114 H114       27.7383   -2.5236   -7.4712 H         1 UNK         0.0806 
    115 H115       28.5368    0.1006   -8.7254 H         1 UNK         0.3000 
    116 H116       27.7797    0.7537  -11.4072 H         1 UNK         0.0850 
    117 H117       29.8101   -1.5276  -10.9389 H         1 UNK         0.0810 
    118 H118       28.2433   -1.7159  -11.7215 H         1 UNK         0.0810 
    119 H119       29.4937   -0.7569  -12.4894 H         1 UNK         0.0810 
    120 H120       29.7050    1.8170  -12.4555 H         1 UNK         0.3040 
    121 H121       31.0261    3.6297  -10.7512 H         1 UNK         0.0766 
    122 H122       30.5743    4.0919  -13.1464 H         1 UNK         0.0812 
    123 H123       31.6951    2.8197  -13.6352 H         1 UNK         0.0812 
    124 H124       32.2900    4.2584  -12.8188 H         1 UNK         0.0812 
    125 H125       32.0280    0.4543  -11.8353 H         1 UNK         0.3205 
    126 H126       34.7857    0.5120  -11.1764 H         1 UNK         0.0754 
    127 H127       34.5439   -1.9806  -11.1928 H         1 UNK         0.0769 
    128 H128       33.7458   -1.2595  -12.5791 H         1 UNK         0.0769 
    129 H129       32.7929   -1.8238  -11.2047 H         1 UNK         0.0769 
    130 H130       31.9725    0.4137   -9.0541 H         1 UNK         0.2981 
    131 H131       33.4621   -0.6011   -6.7575 H         1 UNK         0.0541 
    132 H132       33.9987    3.3755   -6.8610 H         1 UNK         0.3459 
    133 H133       33.4866    2.5012   -8.2840 H         1 UNK         0.3459 
    134 H134       30.6706    0.6208   -6.8821 H         1 UNK         0.0612 
    135 H135       31.3779   -0.1074   -5.4771 H         1 UNK         0.0612 
    136 H136       31.5229   -3.9399   -6.4564 H         1 UNK         0.0624 
    137 H137       32.7695   -2.7471   -6.2335 H         1 UNK         0.0624 
@<TRIPOS>BOND
     1    1    2 1    
     2    1   72 1    
     3    1   73 1    
     4    1   74 1    
     5    2    3 2    
     6    2    4 am   BACKBONE|DICT|INTERRES
     7    4    5 1    
     8    4   75 1    
     9    5    6 1    
    10    5   35 1    
    11    5   76 1    
    12    6    7 1    
    13    6   77 1    
    14    6   78 1    
    15    7    8 1    
    16    8    9 1    
    17    8   79 1    
    18    8   80 1    
    19    9   10 ar   
    20    9   14 ar   
    21   10   11 ar   
    22   10   81 1    
    23   11   12 ar   
    24   11   71 1    
    25   12   13 ar   
    26   12   82 1    
    27   13   14 ar   
    28   13   15 1    
    29   14   83 1    
    30   15   16 1    
    31   15   84 1    
    32   15   85 1    
    33   16   17 1    
    34   17   18 1    
    35   17   86 1    
    36   17   87 1    
    37   18   19 1    
    38   18   37 1    
    39   18   88 1    
    40   19   20 am   BACKBONE|DICT|INTERRES
    41   19   89 1    
    42   20   21 2    
    43   20   22 1    
    44   22   23 1    
    45   22   24 1    
    46   22   90 1    
    47   23   91 1    
    48   23   92 1    
    49   23   93 1    
    50   24   25 am   BACKBONE|DICT|INTERRES
    51   24   94 1    
    52   25   26 2    
    53   25   27 1    
    54   27   28 1    
    55   27   29 1    
    56   27   95 1    
    57   28   96 1    
    58   28   97 1    
    59   28   98 1    
    60   29   30 am   BACKBONE|DICT|INTERRES
    61   29   99 1    
    62   30   31 2    
    63   30   32 1    
    64   32   33 1    
    65   32   34 1    
    66   32  100 1    
    67   33  101 1    
    68   33  102 1    
    69   33  103 1    
    70   34   35 am   BACKBONE|DICT|INTERRES
    71   34  104 1    
    72   35   36 2    
    73   37   38 2    
    74   37   39 am   BACKBONE|DICT|INTERRES
    75   39   40 1    
    76   39  105 1    
    77   40   41 1    
    78   40   42 1    
    79   40  106 1    
    80   41  107 1    
    81   41  108 1    
    82   41  109 1    
    83   42   43 2    
    84   42   44 am   BACKBONE|DICT|INTERRES
    85   44   45 1    
    86   44  110 1    
    87   45   46 1    
    88   45   47 1    
    89   45  111 1    
    90   46  112 1    
    91   46  113 1    
    92   46  114 1    
    93   47   48 2    
    94   47   49 am   BACKBONE|DICT|INTERRES
    95   49   50 1    
    96   49  115 1    
    97   50   51 1    
    98   50   52 1    
    99   50  116 1    
   100   51  117 1    
   101   51  118 1    
   102   51  119 1    
   103   52   53 2    
   104   52   54 am   BACKBONE|DICT|INTERRES
   105   54   55 1    
   106   54  120 1    
   107   55   56 1    
   108   55   57 1    
   109   55  121 1    
   110   56  122 1    
   111   56  123 1    
   112   56  124 1    
   113   57   58 2    
   114   57   59 am   BACKBONE|DICT|INTERRES
   115   59   60 1    
   116   59  125 1    
   117   60   61 1    
   118   60   62 1    
   119   60  126 1    
   120   61  127 1    
   121   61  128 1    
   122   61  129 1    
   123   62   63 2    
   124   62   64 am   BACKBONE|DICT|INTERRES
   125   64   65 1    
   126   64  130 1    
   127   65   66 1    
   128   65   69 1    
   129   65  131 1    
   130   66   67 am   BACKBONE|DICT|INTERRES
   131   66   68 2    
   132   67  132 1    
   133   67  133 1    
   134   69   70 1    
   135   69  134 1    
   136   69  135 1    
   137   70   71 1    
   138   71  136 1    
   139   71  137 1    
@<TRIPOS>SUBSTRUCTURE
     1 UNK         1 GROUP             0       ****    0 ROOT    
