@<TRIPOS>MOLECULE
3R137
137   139    1
SMALL
USER_CHARGES


@<TRIPOS>ATOM
      1 CA         25.7919   -6.0402    2.0386 C.3       0 UNK        -0.2020 
      2 C          25.8516   -4.5609    1.6884 C.2       0 UNK         0.4855 
      3 O          24.9207   -3.8203    2.0053 O.2       0 UNK        -0.5197 
      4 N          26.9419   -4.1259    1.0418 N.am      1 UNK        -0.4892 
      5 CA         27.1613   -2.7444    0.5929 C.3       1 UNK         0.0835 
      6 C6         28.6439   -2.5274    0.2010 C.3       12 UNK        -0.0855 
      7 S7         29.1452   -0.7735    0.1366 S.3       12 UNK        -0.2931 
      8 C8         29.0653   -0.4126   -1.6473 C.3       12 UNK         0.0378 
      9 C9         30.1972   -1.0647   -2.4279 C.ar      12 UNK        -0.0802 
     10 C10        31.4391   -0.4324   -2.5337 C.ar      12 UNK        -0.0944 
     11 C11        32.4820   -1.0313   -3.2479 C.ar      12 UNK        -0.0787 
     12 C12        32.2755   -2.2729   -3.8568 C.ar      12 UNK        -0.0862 
     13 C13        31.0328   -2.9068   -3.7723 C.ar      12 UNK        -0.0733 
     14 C14        29.9981   -2.2951   -3.0589 C.ar      12 UNK        -0.0832 
     15 C15        30.8212   -4.2633   -4.4290 C.3       12 UNK         0.0240 
     16 S16        30.3153   -4.1152   -6.1716 S.3       12 UNK        -0.2522 
     17 C17        28.5697   -3.6058   -6.0087 C.3       12 UNK        -0.0967 
     18 CA         28.1647   -2.4336   -6.9339 C.3       5 UNK         0.0660 
     19 N          26.7078   -2.2937   -6.9511 N.am      5 UNK        -0.4015 
     20 C          25.9699   -2.0305   -8.0375 C.2       4 UNK         0.4946 
     21 O          26.4297   -1.9338   -9.1742 O.2       4 UNK        -0.5353 
     22 CA         24.4538   -1.8498   -7.8307 C.3       4 UNK         0.0277 
     23 CB         23.7169   -3.1684   -8.1165 C.3       4 UNK        -0.1981 
     24 N          24.0951   -1.3800   -6.4906 N.am      4 UNK        -0.4209 
     25 C          24.4134   -0.1816   -5.9798 C.2       3 UNK         0.4942 
     26 O          25.0026    0.7003   -6.6052 O.2       3 UNK        -0.5208 
     27 CA         24.0559    0.0486   -4.5003 C.3       3 UNK         0.0250 
     28 CB         22.6659    0.6930   -4.3812 C.3       3 UNK        -0.1990 
     29 N          24.1062   -1.1640   -3.6728 N.am      3 UNK        -0.4232 
     30 C          25.1873   -1.9355   -3.4843 C.2       2 UNK         0.4993 
     31 O          26.2726   -1.7501   -4.0414 O.2       2 UNK        -0.5286 
     32 CA         24.9990   -3.1682   -2.5838 C.3       2 UNK         0.0209 
     33 CB         25.0611   -4.4508   -3.4303 C.3       2 UNK        -0.1931 
     34 N          25.9824   -3.2638   -1.5006 N.am      2 UNK        -0.4546 
     35 C          26.1802   -2.3507   -0.5363 C.2       1 UNK         0.5154 
     36 O          25.5880   -1.2717   -0.4804 O.2       1 UNK        -0.5181 
     37 C          28.8414   -1.0924   -6.5631 C.2       5 UNK         0.5014 
     38 O          29.9795   -0.8652   -6.9733 O.2       5 UNK        -0.5248 
     39 N          28.1283   -0.2192   -5.8327 N.am      6 UNK        -0.4434 
     40 CA         28.5354    1.1358   -5.4492 C.3       6 UNK         0.0363 
     41 CB         27.6214    1.6230   -4.3055 C.3       6 UNK        -0.1936 
     42 C          28.5610    2.1065   -6.6522 C.2       6 UNK         0.5081 
     43 O          29.1556    1.7957   -7.6820 O.2       6 UNK        -0.5248 
     44 N          27.9273    3.2814   -6.5261 N.am      7 UNK        -0.4718 
     45 CA         27.9362    4.3786   -7.5062 C.3       7 UNK         0.0273 
     46 CB         27.0803    5.5357   -6.9659 C.3       7 UNK        -0.1935 
     47 C          27.4918    4.0077   -8.9360 C.2       7 UNK         0.5018 
     48 O          27.8796    4.6973   -9.8795 O.2       7 UNK        -0.5186 
     49 N          26.7109    2.9285   -9.0774 N.am      8 UNK        -0.4240 
     50 CA         26.2887    2.3729  -10.3628 C.3       8 UNK         0.0235 
     51 CB         25.1024    1.4273  -10.1266 C.3       8 UNK        -0.2000 
     52 C          27.4093    1.6461  -11.1349 C.2       8 UNK         0.4941 
     53 O          27.2932    1.5347  -12.3566 O.2       8 UNK        -0.5273 
     54 N          28.4495    1.1571  -10.4411 N.am      9 UNK        -0.4262 
     55 CA         29.5485    0.3805  -11.0344 C.3       9 UNK         0.0264 
     56 CB         29.3770   -1.1025  -10.6682 C.3       9 UNK        -0.1955 
     57 C          30.9493    0.8723  -10.6327 C.2       9 UNK         0.5031 
     58 O          31.9218    0.4377  -11.2517 O.2       9 UNK        -0.5390 
     59 N          31.0472    1.7393   -9.6149 N.am      10 UNK        -0.4204 
     60 CA         32.2694    2.3054   -9.0345 C.3       10 UNK         0.0237 
     61 CB         32.9694    3.2504  -10.0350 C.3       10 UNK        -0.1985 
     62 C          33.2003    1.2203   -8.4611 C.2       10 UNK         0.4970 
     63 O          34.4039    1.2413   -8.7253 O.2       10 UNK        -0.4914 
     64 N          32.6116    0.2834   -7.7047 N.am      11 UNK        -0.4285 
     65 CA         33.2630   -0.8884   -7.0949 C.3       11 UNK         0.1007 
     66 C          33.6609   -2.0062   -8.1055 C.2       11 UNK         0.5703 
     67 N          33.3179   -1.9123   -9.3862 N.am      11 UNK        -0.7361 
     68 O          34.2718   -2.9991   -7.7167 O.2       11 UNK        -0.4986 
     69 C69        34.4228   -0.5325   -6.1164 C.3       12 UNK        -0.0947 
     70 S70        33.9629    0.6896   -4.8371 S.3       12 UNK        -0.2240 
     71 C71        33.8346   -0.3422   -3.3433 C.3       12 UNK         0.0194 
     72 H72        26.6818   -6.5756    1.7082 H         1 UNK         0.0906 
     73 H73        25.7018   -6.1669    3.1172 H         1 UNK         0.0906 
     74 H74        24.9244   -6.5021    1.5679 H         1 UNK         0.0906 
     75 H75        27.6778   -4.7836    0.8246 H         1 UNK         0.3140 
     76 H76        26.9416   -2.0958    1.4445 H         1 UNK         0.1085 
     77 H77        29.2850   -2.9891    0.9539 H         1 UNK         0.0836 
     78 H78        28.8844   -3.0419   -0.7272 H         1 UNK         0.0836 
     79 H79        29.1072    0.6689   -1.7830 H         1 UNK         0.0731 
     80 H80        28.1000   -0.7341   -2.0394 H         1 UNK         0.0731 
     81 H81        31.5954    0.5244   -2.0543 H         1 UNK         0.1312 
     82 H82        33.0802   -2.7444   -4.4038 H         1 UNK         0.1406 
     83 H83        29.0345   -2.7780   -2.9839 H         1 UNK         0.1631 
     84 H84        30.0796   -4.8456   -3.8797 H         1 UNK         0.0717 
     85 H85        31.7473   -4.8383   -4.3845 H         1 UNK         0.0717 
     86 H86        27.9708   -4.4839   -6.2559 H         1 UNK         0.0934 
     87 H87        28.3227   -3.3755   -4.9745 H         1 UNK         0.0934 
     88 H88        28.5029   -2.6885   -7.9401 H         1 UNK         0.0739 
     89 H89        26.2544   -2.3248   -6.0457 H         1 UNK         0.3093 
     90 H90        24.1062   -1.1051   -8.5487 H         1 UNK         0.0818 
     91 H91        22.6358   -3.0412   -8.0562 H         1 UNK         0.0819 
     92 H92        23.9419   -3.5301   -9.1209 H         1 UNK         0.0819 
     93 H93        24.0039   -3.9539   -7.4161 H         1 UNK         0.0819 
     94 H94        23.5935   -2.0281   -5.9010 H         1 UNK         0.3041 
     95 H95        24.7846    0.7460   -4.0878 H         1 UNK         0.0784 
     96 H96        22.6104    1.6116   -4.9675 H         1 UNK         0.0793 
     97 H97        21.8786    0.0292   -4.7408 H         1 UNK         0.0793 
     98 H98        22.4376    0.9577   -3.3485 H         1 UNK         0.0793 
     99 H99        23.2554   -1.3986   -3.1812 H         1 UNK         0.3024 
    100 H100       24.0135   -3.1138   -2.1162 H         1 UNK         0.1171 
    101 H101       26.0422   -4.5855   -3.8881 H         1 UNK         0.0786 
    102 H102       24.8475   -5.3348   -2.8291 H         1 UNK         0.0786 
    103 H103       24.3263   -4.4264   -4.2364 H         1 UNK         0.0786 
    104 H104       26.5073   -4.1239   -1.4487 H         1 UNK         0.2977 
    105 H105       27.2223   -0.5177   -5.4966 H         1 UNK         0.3127 
    106 H106       29.5559    1.0723   -5.0654 H         1 UNK         0.0770 
    107 H107       26.6339    1.9097   -4.6656 H         1 UNK         0.0814 
    108 H108       28.0537    2.4857   -3.7968 H         1 UNK         0.0814 
    109 H109       27.4689    0.8506   -3.5556 H         1 UNK         0.0814 
    110 H110       27.4433    3.4639   -5.6589 H         1 UNK         0.2983 
    111 H111       28.9686    4.7260   -7.5835 H         1 UNK         0.0947 
    112 H112       27.0856    6.3820   -7.6547 H         1 UNK         0.0806 
    113 H113       27.4585    5.8989   -6.0101 H         1 UNK         0.0806 
    114 H114       26.0408    5.2362   -6.8261 H         1 UNK         0.0806 
    115 H115       26.4385    2.4215   -8.2457 H         1 UNK         0.3000 
    116 H116       25.9442    3.1969  -10.9917 H         1 UNK         0.0850 
    117 H117       24.7405    1.0056  -11.0654 H         1 UNK         0.0810 
    118 H118       24.2656    1.9440   -9.6563 H         1 UNK         0.0810 
    119 H119       25.3882    0.5969   -9.4831 H         1 UNK         0.0810 
    120 H120       28.4788    1.2981   -9.4353 H         1 UNK         0.3040 
    121 H121       29.5146    0.4602  -12.1227 H         1 UNK         0.0766 
    122 H122       29.4201   -1.2526   -9.5907 H         1 UNK         0.0812 
    123 H123       30.1621   -1.7141  -11.1147 H         1 UNK         0.0812 
    124 H124       28.4225   -1.4905  -11.0237 H         1 UNK         0.0812 
    125 H125       30.2087    1.9202   -9.0640 H         1 UNK         0.3205 
    126 H126       31.9491    2.9080   -8.1831 H         1 UNK         0.0754 
    127 H127       33.8116    3.7605   -9.5659 H         1 UNK         0.0769 
    128 H128       32.2865    4.0190  -10.3971 H         1 UNK         0.0769 
    129 H129       33.3570    2.7115  -10.9001 H         1 UNK         0.0769 
    130 H130       31.6052    0.3059   -7.5716 H         1 UNK         0.2981 
    131 H131       32.4816   -1.3495   -6.4931 H         1 UNK         0.0541 
    132 H132       32.8400   -1.0943   -9.7364 H         1 UNK         0.3459 
    133 H133       33.5769   -2.6526  -10.0183 H         1 UNK         0.3459 
    134 H134       35.2759   -0.1337   -6.6664 H         1 UNK         0.0612 
    135 H135       34.7925   -1.4329   -5.6242 H         1 UNK         0.0612 
    136 H136       33.9840    0.2960   -2.4711 H         1 UNK         0.0624 
    137 H137       34.6423   -1.0751   -3.3186 H         1 UNK         0.0624 
@<TRIPOS>BOND
     1    1    2 1    
     2    1   72 1    
     3    1   73 1    
     4    1   74 1    
     5    2    3 2    
     6    2    4 am   BACKBONE|DICT|INTERRES
     7    4    5 1    
     8    4   75 1    
     9    5    6 1    
    10    5   35 1    
    11    5   76 1    
    12    6    7 1    
    13    6   77 1    
    14    6   78 1    
    15    7    8 1    
    16    8    9 1    
    17    8   79 1    
    18    8   80 1    
    19    9   10 ar   
    20    9   14 ar   
    21   10   11 ar   
    22   10   81 1    
    23   11   12 ar   
    24   11   71 1    
    25   12   13 ar   
    26   12   82 1    
    27   13   14 ar   
    28   13   15 1    
    29   14   83 1    
    30   15   16 1    
    31   15   84 1    
    32   15   85 1    
    33   16   17 1    
    34   17   18 1    
    35   17   86 1    
    36   17   87 1    
    37   18   19 1    
    38   18   37 1    
    39   18   88 1    
    40   19   20 am   BACKBONE|DICT|INTERRES
    41   19   89 1    
    42   20   21 2    
    43   20   22 1    
    44   22   23 1    
    45   22   24 1    
    46   22   90 1    
    47   23   91 1    
    48   23   92 1    
    49   23   93 1    
    50   24   25 am   BACKBONE|DICT|INTERRES
    51   24   94 1    
    52   25   26 2    
    53   25   27 1    
    54   27   28 1    
    55   27   29 1    
    56   27   95 1    
    57   28   96 1    
    58   28   97 1    
    59   28   98 1    
    60   29   30 am   BACKBONE|DICT|INTERRES
    61   29   99 1    
    62   30   31 2    
    63   30   32 1    
    64   32   33 1    
    65   32   34 1    
    66   32  100 1    
    67   33  101 1    
    68   33  102 1    
    69   33  103 1    
    70   34   35 am   BACKBONE|DICT|INTERRES
    71   34  104 1    
    72   35   36 2    
    73   37   38 2    
    74   37   39 am   BACKBONE|DICT|INTERRES
    75   39   40 1    
    76   39  105 1    
    77   40   41 1    
    78   40   42 1    
    79   40  106 1    
    80   41  107 1    
    81   41  108 1    
    82   41  109 1    
    83   42   43 2    
    84   42   44 am   BACKBONE|DICT|INTERRES
    85   44   45 1    
    86   44  110 1    
    87   45   46 1    
    88   45   47 1    
    89   45  111 1    
    90   46  112 1    
    91   46  113 1    
    92   46  114 1    
    93   47   48 2    
    94   47   49 am   BACKBONE|DICT|INTERRES
    95   49   50 1    
    96   49  115 1    
    97   50   51 1    
    98   50   52 1    
    99   50  116 1    
   100   51  117 1    
   101   51  118 1    
   102   51  119 1    
   103   52   53 2    
   104   52   54 am   BACKBONE|DICT|INTERRES
   105   54   55 1    
   106   54  120 1    
   107   55   56 1    
   108   55   57 1    
   109   55  121 1    
   110   56  122 1    
   111   56  123 1    
   112   56  124 1    
   113   57   58 2    
   114   57   59 am   BACKBONE|DICT|INTERRES
   115   59   60 1    
   116   59  125 1    
   117   60   61 1    
   118   60   62 1    
   119   60  126 1    
   120   61  127 1    
   121   61  128 1    
   122   61  129 1    
   123   62   63 2    
   124   62   64 am   BACKBONE|DICT|INTERRES
   125   64   65 1    
   126   64  130 1    
   127   65   66 1    
   128   65   69 1    
   129   65  131 1    
   130   66   67 am   BACKBONE|DICT|INTERRES
   131   66   68 2    
   132   67  132 1    
   133   67  133 1    
   134   69   70 1    
   135   69  134 1    
   136   69  135 1    
   137   70   71 1    
   138   71  136 1    
   139   71  137 1    
@<TRIPOS>SUBSTRUCTURE
     1 UNK         1 GROUP             0       ****    0 ROOT    
