@<TRIPOS>MOLECULE
3R137
137   139    1
SMALL
USER_CHARGES


@<TRIPOS>ATOM
      1 CA         23.1119   -3.7104   -7.2349 C.3       0 UNK        -0.2020 
      2 C          23.6801   -3.5316   -5.8360 C.2       0 UNK         0.4855 
      3 O          23.9292   -2.4010   -5.4205 O.2       0 UNK        -0.5197 
      4 N          23.8596   -4.6355   -5.0950 N.am      1 UNK        -0.4892 
      5 CA         24.4975   -4.7228   -3.7644 C.3       1 UNK         0.0835 
      6 C6         26.0078   -4.3477   -3.7952 C.3       12 UNK        -0.0855 
      7 S7         26.9361   -5.4095   -4.9560 S.3       12 UNK        -0.2931 
      8 C8         28.4784   -5.7472   -4.0431 C.3       12 UNK         0.0378 
      9 C9         29.4974   -4.6174   -4.1541 C.ar      12 UNK        -0.0802 
     10 C10        29.8765   -4.1299   -5.4088 C.ar      12 UNK        -0.0944 
     11 C11        30.8500   -3.1349   -5.5379 C.ar      12 UNK        -0.0787 
     12 C12        31.4610   -2.6370   -4.3781 C.ar      12 UNK        -0.0862 
     13 C13        31.1028   -3.1220   -3.1148 C.ar      12 UNK        -0.0733 
     14 C14        30.1134   -4.1044   -3.0090 C.ar      12 UNK        -0.0832 
     15 C15        31.8137   -2.6169   -1.8647 C.3       12 UNK         0.0240 
     16 S16        30.8317   -1.3832   -0.9527 S.3       12 UNK        -0.2522 
     17 C17        30.8517    0.0255   -2.1107 C.3       12 UNK        -0.0967 
     18 CA         29.5221    0.1215   -2.9042 C.3       5 UNK         0.0660 
     19 N          28.3534    0.3952   -2.0609 N.am      5 UNK        -0.4015 
     20 C          28.0784    1.5188   -1.3855 C.2       4 UNK         0.4946 
     21 O          28.8107    2.5098   -1.3613 O.2       4 UNK        -0.5353 
     22 CA         26.7332    1.5355   -0.6308 C.3       4 UNK         0.0277 
     23 CB         26.5680    2.7840    0.2568 C.3       4 UNK        -0.1981 
     24 N          25.5854    1.4460   -1.5404 N.am      4 UNK        -0.4209 
     25 C          25.1910    0.3393   -2.1826 C.2       3 UNK         0.4942 
     26 O          25.7851   -0.7400   -2.1107 O.2       3 UNK        -0.5208 
     27 CA         23.9651    0.4740   -3.0976 C.3       3 UNK         0.0250 
     28 CB         24.4069    0.7705   -4.5407 C.3       3 UNK        -0.1990 
     29 N          23.1765   -0.7577   -3.0756 N.am      3 UNK        -0.4232 
     30 C          22.3939   -1.1332   -2.0511 C.2       2 UNK         0.4993 
     31 O          22.1526   -0.4136   -1.0804 O.2       2 UNK        -0.5286 
     32 CA         21.7727   -2.5426   -2.1023 C.3       2 UNK         0.0209 
     33 CB         20.3225   -2.4755   -2.6086 C.3       2 UNK        -0.1931 
     34 N          22.5327   -3.4661   -2.9455 N.am      2 UNK        -0.4546 
     35 C          23.7402   -3.9654   -2.6451 C.2       1 UNK         0.5154 
     36 O          24.2513   -3.8547   -1.5296 O.2       1 UNK        -0.5181 
     37 C          29.5922    1.0936   -4.0990 C.2       5 UNK         0.5014 
     38 O          30.6264    1.7161   -4.3402 O.2       5 UNK        -0.5248 
     39 N          28.4743    1.1945   -4.8270 N.am      6 UNK        -0.4434 
     40 CA         28.3303    1.9802   -6.0536 C.3       6 UNK         0.0363 
     41 CB         27.7050    3.3486   -5.7234 C.3       6 UNK        -0.1936 
     42 C          27.5300    1.1886   -7.1023 C.2       6 UNK         0.5081 
     43 O          26.8264    1.7821   -7.9194 O.2       6 UNK        -0.5248 
     44 N          27.6400   -0.1476   -7.0539 N.am      7 UNK        -0.4718 
     45 CA         26.9453   -1.0824   -7.9457 C.3       7 UNK         0.0273 
     46 CB         26.9671   -2.4781   -7.3052 C.3       7 UNK        -0.1935 
     47 C          27.5408   -1.1426   -9.3647 C.2       7 UNK         0.5018 
     48 O          26.8868   -1.6629  -10.2694 O.2       7 UNK        -0.5186 
     49 N          28.7631   -0.6278   -9.5324 N.am      8 UNK        -0.4240 
     50 CA         29.4926   -0.5368  -10.7895 C.3       8 UNK         0.0235 
     51 CB         30.4282   -1.7510  -10.9257 C.3       8 UNK        -0.2000 
     52 C          30.2956    0.7652  -10.7725 C.2       8 UNK         0.4941 
     53 O          30.6648    1.2365   -9.6923 O.2       8 UNK        -0.5273 
     54 N          30.6030    1.2939  -11.9643 N.am      9 UNK        -0.4262 
     55 CA         31.3806    2.5248  -12.1618 C.3       9 UNK         0.0264 
     56 CB         31.3667    2.9014  -13.6524 C.3       9 UNK        -0.1955 
     57 C          32.8279    2.4473  -11.6395 C.2       9 UNK         0.5031 
     58 O          33.4009    3.4825  -11.2982 O.2       9 UNK        -0.5390 
     59 N          33.3825    1.2289  -11.5672 N.am      10 UNK        -0.4204 
     60 CA         34.6770    0.9363  -10.9489 C.3       10 UNK         0.0237 
     61 CB         35.1203   -0.4802  -11.3505 C.3       10 UNK        -0.1985 
     62 C          34.6576    1.0769   -9.4150 C.2       10 UNK         0.4970 
     63 O          35.6972    1.3903   -8.8337 O.2       10 UNK        -0.4914 
     64 N          33.4947    0.8401   -8.7942 N.am      11 UNK        -0.4285 
     65 CA         33.2706    1.0011   -7.3519 C.3       11 UNK         0.1007 
     66 C          32.8217    2.4469   -7.0173 C.2       11 UNK         0.5703 
     67 N          31.8739    3.0095   -7.7591 N.am      11 UNK        -0.7361 
     68 O          33.3570    3.0697   -6.1035 O.2       11 UNK        -0.4986 
     69 C69        32.2638   -0.0392   -6.7956 C.3       12 UNK        -0.0947 
     70 S70        32.7818   -1.7575   -7.1225 S.3       12 UNK        -0.2240 
     71 C71        31.2023   -2.6565   -6.9504 C.3       12 UNK         0.0194 
     72 H72        22.1435   -3.2169   -7.3121 H         1 UNK         0.0906 
     73 H73        23.7810   -3.2625   -7.9691 H         1 UNK         0.0906 
     74 H74        22.9816   -4.7613   -7.4921 H         1 UNK         0.0906 
     75 H75        23.6088   -5.5298   -5.4948 H         1 UNK         0.3140 
     76 H76        24.4321   -5.7730   -3.4752 H         1 UNK         0.1085 
     77 H77        26.4489   -4.4475   -2.8019 H         1 UNK         0.0836 
     78 H78        26.1453   -3.3027   -4.0778 H         1 UNK         0.0836 
     79 H79        28.2464   -5.9734   -3.0013 H         1 UNK         0.0731 
     80 H80        28.9289   -6.6511   -4.4551 H         1 UNK         0.0731 
     81 H81        29.4137   -4.5415   -6.2954 H         1 UNK         0.1312 
     82 H82        32.2299   -1.8821   -4.4460 H         1 UNK         0.1406 
     83 H83        29.8428   -4.4847   -2.0330 H         1 UNK         0.1631 
     84 H84        32.7871   -2.1932   -2.1172 H         1 UNK         0.0717 
     85 H85        32.0174   -3.4586   -1.2012 H         1 UNK         0.0717 
     86 H86        31.0346    0.9428   -1.5488 H         1 UNK         0.0934 
     87 H87        31.7041   -0.0840   -2.7831 H         1 UNK         0.0934 
     88 H88        29.3376   -0.8572   -3.3498 H         1 UNK         0.0739 
     89 H89        27.6380   -0.3283   -2.0411 H         1 UNK         0.3093 
     90 H90        26.7229    0.6620    0.0254 H         1 UNK         0.0818 
     91 H91        25.6459    2.7400    0.8367 H         1 UNK         0.0819 
     92 H92        27.3909    2.8688    0.9679 H         1 UNK         0.0819 
     93 H93        26.5512    3.7014   -0.3329 H         1 UNK         0.0819 
     94 H94        25.0673    2.3007   -1.6869 H         1 UNK         0.3041 
     95 H95        23.3385    1.2965   -2.7456 H         1 UNK         0.0784 
     96 H96        23.5508    0.8340   -5.2127 H         1 UNK         0.0793 
     97 H97        24.9360    1.7216   -4.6005 H         1 UNK         0.0793 
     98 H98        25.0745   -0.0012   -4.9271 H         1 UNK         0.0793 
     99 H99        23.3657   -1.4204   -3.8232 H         1 UNK         0.3024 
    100 H100       21.7666   -2.9333   -1.0820 H         1 UNK         0.1171 
    101 H101       20.2681   -2.0968   -3.6301 H         1 UNK         0.0786 
    102 H102       19.7217   -1.8136   -1.9832 H         1 UNK         0.0786 
    103 H103       19.8485   -3.4571   -2.5873 H         1 UNK         0.0786 
    104 H104       22.1935   -3.6128   -3.8853 H         1 UNK         0.2977 
    105 H105       27.6616    0.6648   -4.5441 H         1 UNK         0.3127 
    106 H106       29.3135    2.1527   -6.4972 H         1 UNK         0.0770 
    107 H107       26.6979    3.2459   -5.3197 H         1 UNK         0.0814 
    108 H108       27.6397    3.9754   -6.6135 H         1 UNK         0.0814 
    109 H109       28.3056    3.8899   -4.9922 H         1 UNK         0.0814 
    110 H110       28.2541   -0.5564   -6.3652 H         1 UNK         0.2983 
    111 H111       25.9047   -0.7624   -8.0379 H         1 UNK         0.0947 
    112 H112       26.3826   -3.1886   -7.8909 H         1 UNK         0.0806 
    113 H113       26.5432   -2.4614   -6.3021 H         1 UNK         0.0806 
    114 H114       27.9795   -2.8735   -7.2347 H         1 UNK         0.0806 
    115 H115       29.2006   -0.1414   -8.7614 H         1 UNK         0.3000 
    116 H116       28.7918   -0.5083  -11.6269 H         1 UNK         0.0850 
    117 H117       31.1584   -1.7915  -10.1158 H         1 UNK         0.0810 
    118 H118       29.8663   -2.6851  -10.9127 H         1 UNK         0.0810 
    119 H119       30.9808   -1.7207  -11.8654 H         1 UNK         0.0810 
    120 H120       30.2681    0.8353  -12.8002 H         1 UNK         0.3040 
    121 H121       30.8816    3.3203  -11.6039 H         1 UNK         0.0766 
    122 H122       30.3501    3.0575  -14.0139 H         1 UNK         0.0812 
    123 H123       31.8295    2.1300  -14.2693 H         1 UNK         0.0812 
    124 H124       31.9148    3.8288  -13.8256 H         1 UNK         0.0812 
    125 H125       32.8462    0.4421  -11.9015 H         1 UNK         0.3205 
    126 H126       35.4089    1.6482  -11.3370 H         1 UNK         0.0754 
    127 H127       36.0978   -0.7168  -10.9277 H         1 UNK         0.0769 
    128 H128       35.2055   -0.5783  -12.4330 H         1 UNK         0.0769 
    129 H129       34.4208   -1.2391  -10.9967 H         1 UNK         0.0769 
    130 H130       32.6645    0.6642   -9.3434 H         1 UNK         0.2981 
    131 H131       34.2155    0.8328   -6.8311 H         1 UNK         0.0541 
    132 H132       31.5865    3.9539   -7.5625 H         1 UNK         0.3459 
    133 H133       31.4268    2.4812   -8.5029 H         1 UNK         0.3459 
    134 H134       32.1618    0.0796   -5.7170 H         1 UNK         0.0612 
    135 H135       31.2727    0.1246   -7.2214 H         1 UNK         0.0612 
    136 H136       30.3874   -2.0436   -7.3363 H         1 UNK         0.0624 
    137 H137       31.2606   -3.5261   -7.6068 H         1 UNK         0.0624 
@<TRIPOS>BOND
     1    1    2 1    
     2    1   72 1    
     3    1   73 1    
     4    1   74 1    
     5    2    3 2    
     6    2    4 am   BACKBONE|DICT|INTERRES
     7    4    5 1    
     8    4   75 1    
     9    5    6 1    
    10    5   35 1    
    11    5   76 1    
    12    6    7 1    
    13    6   77 1    
    14    6   78 1    
    15    7    8 1    
    16    8    9 1    
    17    8   79 1    
    18    8   80 1    
    19    9   10 ar   
    20    9   14 ar   
    21   10   11 ar   
    22   10   81 1    
    23   11   12 ar   
    24   11   71 1    
    25   12   13 ar   
    26   12   82 1    
    27   13   14 ar   
    28   13   15 1    
    29   14   83 1    
    30   15   16 1    
    31   15   84 1    
    32   15   85 1    
    33   16   17 1    
    34   17   18 1    
    35   17   86 1    
    36   17   87 1    
    37   18   19 1    
    38   18   37 1    
    39   18   88 1    
    40   19   20 am   BACKBONE|DICT|INTERRES
    41   19   89 1    
    42   20   21 2    
    43   20   22 1    
    44   22   23 1    
    45   22   24 1    
    46   22   90 1    
    47   23   91 1    
    48   23   92 1    
    49   23   93 1    
    50   24   25 am   BACKBONE|DICT|INTERRES
    51   24   94 1    
    52   25   26 2    
    53   25   27 1    
    54   27   28 1    
    55   27   29 1    
    56   27   95 1    
    57   28   96 1    
    58   28   97 1    
    59   28   98 1    
    60   29   30 am   BACKBONE|DICT|INTERRES
    61   29   99 1    
    62   30   31 2    
    63   30   32 1    
    64   32   33 1    
    65   32   34 1    
    66   32  100 1    
    67   33  101 1    
    68   33  102 1    
    69   33  103 1    
    70   34   35 am   BACKBONE|DICT|INTERRES
    71   34  104 1    
    72   35   36 2    
    73   37   38 2    
    74   37   39 am   BACKBONE|DICT|INTERRES
    75   39   40 1    
    76   39  105 1    
    77   40   41 1    
    78   40   42 1    
    79   40  106 1    
    80   41  107 1    
    81   41  108 1    
    82   41  109 1    
    83   42   43 2    
    84   42   44 am   BACKBONE|DICT|INTERRES
    85   44   45 1    
    86   44  110 1    
    87   45   46 1    
    88   45   47 1    
    89   45  111 1    
    90   46  112 1    
    91   46  113 1    
    92   46  114 1    
    93   47   48 2    
    94   47   49 am   BACKBONE|DICT|INTERRES
    95   49   50 1    
    96   49  115 1    
    97   50   51 1    
    98   50   52 1    
    99   50  116 1    
   100   51  117 1    
   101   51  118 1    
   102   51  119 1    
   103   52   53 2    
   104   52   54 am   BACKBONE|DICT|INTERRES
   105   54   55 1    
   106   54  120 1    
   107   55   56 1    
   108   55   57 1    
   109   55  121 1    
   110   56  122 1    
   111   56  123 1    
   112   56  124 1    
   113   57   58 2    
   114   57   59 am   BACKBONE|DICT|INTERRES
   115   59   60 1    
   116   59  125 1    
   117   60   61 1    
   118   60   62 1    
   119   60  126 1    
   120   61  127 1    
   121   61  128 1    
   122   61  129 1    
   123   62   63 2    
   124   62   64 am   BACKBONE|DICT|INTERRES
   125   64   65 1    
   126   64  130 1    
   127   65   66 1    
   128   65   69 1    
   129   65  131 1    
   130   66   67 am   BACKBONE|DICT|INTERRES
   131   66   68 2    
   132   67  132 1    
   133   67  133 1    
   134   69   70 1    
   135   69  134 1    
   136   69  135 1    
   137   70   71 1    
   138   71  136 1    
   139   71  137 1    
@<TRIPOS>SUBSTRUCTURE
     1 UNK         1 GROUP             0       ****    0 ROOT    
