@<TRIPOS>MOLECULE
3R137
137   139    1
SMALL
USER_CHARGES


@<TRIPOS>ATOM
      1 CA         28.3960    1.2043    2.4276 C.3       0 UNK        -0.2020 
      2 C          28.2002    0.5419    1.0719 C.2       0 UNK         0.4855 
      3 O          27.5626    1.1229    0.1931 O.2       0 UNK        -0.5197 
      4 N          28.7511   -0.6649    0.8919 N.am      1 UNK        -0.4892 
      5 CA         28.6254   -1.4698   -0.3274 C.3       1 UNK         0.0835 
      6 C6         29.6346   -2.6456   -0.3407 C.3       12 UNK        -0.0855 
      7 S7         31.3671   -2.0917   -0.5155 S.3       12 UNK        -0.2931 
      8 C8         31.4781   -1.6200   -2.2765 C.3       12 UNK         0.0378 
      9 C9         31.4036   -2.8150   -3.2180 C.ar      12 UNK        -0.0802 
     10 C10        32.5733   -3.4279   -3.6788 C.ar      12 UNK        -0.0944 
     11 C11        32.5051   -4.5058   -4.5679 C.ar      12 UNK        -0.0787 
     12 C12        31.2564   -4.9845   -4.9780 C.ar      12 UNK        -0.0862 
     13 C13        30.0813   -4.3842   -4.5188 C.ar      12 UNK        -0.0733 
     14 C14        30.1638   -3.2878   -3.6575 C.ar      12 UNK        -0.0832 
     15 C15        28.7211   -4.9346   -4.9258 C.3       12 UNK         0.0240 
     16 S16        28.1723   -4.3081   -6.5429 S.3       12 UNK        -0.2522 
     17 C17        28.1254   -2.5132   -6.2423 C.3       12 UNK        -0.0967 
     18 CA         27.1967   -1.7906   -7.2429 C.3       5 UNK         0.0660 
     19 N          25.7827   -2.0607   -6.9890 N.am      5 UNK        -0.4015 
     20 C          24.8197   -1.9826   -7.9166 C.2       4 UNK         0.4946 
     21 O          25.0278   -1.7628   -9.1103 O.2       4 UNK        -0.5353 
     22 CA         23.3715   -2.1624   -7.4282 C.3       4 UNK         0.0277 
     23 CB         22.9654   -3.6441   -7.4827 C.3       4 UNK        -0.1981 
     24 N          23.1435   -1.6432   -6.0760 N.am      4 UNK        -0.4209 
     25 C          23.2458   -0.3518   -5.7299 C.2       3 UNK         0.4942 
     26 O          23.5392    0.5497   -6.5147 O.2       3 UNK        -0.5208 
     27 CA         23.0246   -0.0152   -4.2460 C.3       3 UNK         0.0250 
     28 CB         21.5252    0.1521   -3.9515 C.3       3 UNK        -0.1990 
     29 N          23.6056   -0.9846   -3.3083 N.am      3 UNK        -0.4232 
     30 C          24.8980   -1.3354   -3.2585 C.2       2 UNK         0.4993 
     31 O          25.7491   -0.9717   -4.0766 O.2       2 UNK        -0.5286 
     32 CA         25.3147   -2.2749   -2.1246 C.3       2 UNK         0.0209 
     33 CB         25.2542   -3.7417   -2.5836 C.3       2 UNK        -0.1931 
     34 N          26.6807   -1.9264   -1.7459 N.am      2 UNK        -0.4546 
     35 C          27.1826   -1.9859   -0.5073 C.2       1 UNK         0.5154 
     36 O          26.5689   -2.4400    0.4621 O.2       1 UNK        -0.5181 
     37 C          27.4541   -0.2765   -7.2353 C.2       5 UNK         0.5014 
     38 O          28.1004    0.2233   -8.1564 O.2       5 UNK        -0.5248 
     39 N          26.9384    0.4321   -6.2184 N.am      6 UNK        -0.4434 
     40 CA         27.1018    1.8783   -6.0285 C.3       6 UNK         0.0363 
     41 CB         26.4160    2.3102   -4.7246 C.3       6 UNK        -0.1936 
     42 C          26.5969    2.7223   -7.2114 C.2       6 UNK         0.5081 
     43 O          27.2276    3.7252   -7.5447 O.2       6 UNK        -0.5248 
     44 N          25.5260    2.2655   -7.8763 N.am      7 UNK        -0.4718 
     45 CA         25.0018    2.8281   -9.1268 C.3       7 UNK         0.0273 
     46 CB         23.7131    2.0817   -9.5075 C.3       7 UNK        -0.1935 
     47 C          25.9990    2.8055  -10.3046 C.2       7 UNK         0.5018 
     48 O          25.8632    3.6211  -11.2171 O.2       7 UNK        -0.5186 
     49 N          26.9825    1.8968  -10.2583 N.am      8 UNK        -0.4240 
     50 CA         28.0859    1.7764  -11.2128 C.3       8 UNK         0.0235 
     51 CB         28.1538    0.3147  -11.6929 C.3       8 UNK        -0.2000 
     52 C          29.4274    2.2265  -10.5973 C.2       8 UNK         0.4941 
     53 O          30.4741    1.9351  -11.1764 O.2       8 UNK        -0.5273 
     54 N          29.3840    2.9057   -9.4382 N.am      9 UNK        -0.4262 
     55 CA         30.5105    3.3839   -8.6224 C.3       9 UNK         0.0264 
     56 CB         31.3959    4.3761   -9.4072 C.3       9 UNK        -0.1955 
     57 C          31.3336    2.2710   -7.9368 C.2       9 UNK         0.5031 
     58 O          32.4005    2.5694   -7.3964 O.2       9 UNK        -0.5390 
     59 N          30.8079    1.0365   -7.9207 N.am      10 UNK        -0.4204 
     60 CA         31.3423   -0.1736   -7.2854 C.3       10 UNK         0.0237 
     61 CB         31.2326   -0.0476   -5.7502 C.3       10 UNK        -0.1985 
     62 C          32.7513   -0.5804   -7.7691 C.2       10 UNK         0.4970 
     63 O          33.1818   -0.1646   -8.8474 O.2       10 UNK        -0.4914 
     64 N          33.4247   -1.4340   -6.9871 N.am      11 UNK        -0.4285 
     65 CA         34.8137   -1.8572   -7.2106 C.3       11 UNK         0.1007 
     66 C          35.8151   -0.6876   -7.0061 C.2       11 UNK         0.5703 
     67 N          36.8356   -0.5870   -7.8471 N.am      11 UNK        -0.7361 
     68 O          35.7002    0.0964   -6.0656 O.2       11 UNK        -0.4986 
     69 C69        35.1953   -3.0598   -6.3099 C.3       12 UNK        -0.0947 
     70 S70        34.2546   -4.5686   -6.7177 S.3       12 UNK        -0.2240 
     71 C71        33.7739   -5.1769   -5.0708 C.3       12 UNK         0.0194 
     72 H72        28.9048    2.1604    2.3081 H         1 UNK         0.0906 
     73 H73        27.4304    1.3884    2.8977 H         1 UNK         0.0906 
     74 H74        28.9891    0.5869    3.1020 H         1 UNK         0.0906 
     75 H75        29.2568   -1.1002    1.6502 H         1 UNK         0.3140 
     76 H76        28.8415   -0.8111   -1.1702 H         1 UNK         0.1085 
     77 H77        29.5564   -3.2125    0.5891 H         1 UNK         0.0836 
     78 H78        29.4092   -3.3687   -1.1230 H         1 UNK         0.0836 
     79 H79        30.6995   -0.8978   -2.5231 H         1 UNK         0.0731 
     80 H80        32.4216   -1.0938   -2.4299 H         1 UNK         0.0731 
     81 H81        33.5359   -3.0643   -3.3461 H         1 UNK         0.1312 
     82 H82        31.1990   -5.8272   -5.6537 H         1 UNK         0.1406 
     83 H83        29.2566   -2.8104   -3.3179 H         1 UNK         0.1631 
     84 H84        28.7655   -6.0238   -4.9691 H         1 UNK         0.0717 
     85 H85        27.9722   -4.6947   -4.1707 H         1 UNK         0.0717 
     86 H86        27.8086   -2.3195   -5.2166 H         1 UNK         0.0934 
     87 H87        29.1506   -2.1504   -6.3209 H         1 UNK         0.0934 
     88 H88        27.4454   -2.1452   -8.2461 H         1 UNK         0.0739 
     89 H89        25.5182   -2.2002   -6.0240 H         1 UNK         0.3093 
     90 H90        22.7262   -1.6044   -8.1103 H         1 UNK         0.0818 
     91 H91        21.9148   -3.7782   -7.2243 H         1 UNK         0.0819 
     92 H92        23.1038   -4.0489   -8.4864 H         1 UNK         0.0819 
     93 H93        23.5609   -4.2533   -6.8014 H         1 UNK         0.0819 
     94 H94        22.8947   -2.3122   -5.3620 H         1 UNK         0.3041 
     95 H95        23.5093    0.9434   -4.0558 H         1 UNK         0.0784 
     96 H96        21.0743    0.8821   -4.6256 H         1 UNK         0.0793 
     97 H97        20.9801   -0.7847   -4.0741 H         1 UNK         0.0793 
     98 H98        21.3572    0.5083   -2.9349 H         1 UNK         0.0793 
     99 H99        22.9783   -1.3542   -2.6079 H         1 UNK         0.3024 
    100 H100       24.6463   -2.1247   -1.2732 H         1 UNK         0.1171 
    101 H101       25.6118   -4.4167   -1.8058 H         1 UNK         0.0786 
    102 H102       24.2308   -4.0350   -2.8208 H         1 UNK         0.0786 
    103 H103       25.8560   -3.9100   -3.4769 H         1 UNK         0.0786 
    104 H104       27.1999   -1.4714   -2.4859 H         1 UNK         0.2977 
    105 H105       26.4300   -0.0619   -5.4860 H         1 UNK         0.3127 
    106 H106       28.1726    2.0676   -5.9281 H         1 UNK         0.0770 
    107 H107       25.3372    2.1687   -4.7763 H         1 UNK         0.0814 
    108 H108       26.5961    3.3666   -4.5216 H         1 UNK         0.0814 
    109 H109       26.7899    1.7464   -3.8697 H         1 UNK         0.0814 
    110 H110       25.0224    1.4712   -7.4903 H         1 UNK         0.2983 
    111 H111       24.7521    3.8742   -8.9374 H         1 UNK         0.0947 
    112 H112       23.2876    2.4765  -10.4312 H         1 UNK         0.0806 
    113 H113       22.9530    2.1832   -8.7327 H         1 UNK         0.0806 
    114 H114       23.8959    1.0167   -9.6586 H         1 UNK         0.0806 
    115 H115       27.0401    1.2806   -9.4526 H         1 UNK         0.3000 
    116 H116       27.9075    2.4128  -12.0819 H         1 UNK         0.0850 
    117 H117       28.9211    0.1848  -12.4571 H         1 UNK         0.0810 
    118 H118       27.2071   -0.0023  -12.1306 H         1 UNK         0.0810 
    119 H119       28.3881   -0.3671  -10.8742 H         1 UNK         0.0810 
    120 H120       28.4713    3.0986   -9.0370 H         1 UNK         0.3040 
    121 H121       30.0517    3.9434   -7.8059 H         1 UNK         0.0766 
    122 H122       30.7990    5.1615   -9.8706 H         1 UNK         0.0812 
    123 H123       31.9668    3.8785  -10.1914 H         1 UNK         0.0812 
    124 H124       32.1144    4.8644   -8.7478 H         1 UNK         0.0812 
    125 H125       29.9004    0.9099   -8.3604 H         1 UNK         0.3205 
    126 H126       30.6836   -0.9806   -7.6060 H         1 UNK         0.0754 
    127 H127       31.9525    0.6685   -5.3515 H         1 UNK         0.0769 
    128 H128       31.4099   -1.0033   -5.2617 H         1 UNK         0.0769 
    129 H129       30.2368    0.2788   -5.4495 H         1 UNK         0.0769 
    130 H130       33.0040   -1.7476   -6.1262 H         1 UNK         0.2981 
    131 H131       34.8891   -2.1813   -8.2508 H         1 UNK         0.0541 
    132 H132       36.9461   -1.2331   -8.6132 H         1 UNK         0.3459 
    133 H133       37.5046    0.1559   -7.7183 H         1 UNK         0.3459 
    134 H134       35.0597   -2.8047   -5.2579 H         1 UNK         0.0612 
    135 H135       36.2526   -3.3050   -6.4275 H         1 UNK         0.0612 
    136 H136       34.5958   -5.0367   -4.3669 H         1 UNK         0.0624 
    137 H137       33.6122   -6.2540   -5.1333 H         1 UNK         0.0624 
@<TRIPOS>BOND
     1    1    2 1    
     2    1   72 1    
     3    1   73 1    
     4    1   74 1    
     5    2    3 2    
     6    2    4 am   BACKBONE|DICT|INTERRES
     7    4    5 1    
     8    4   75 1    
     9    5    6 1    
    10    5   35 1    
    11    5   76 1    
    12    6    7 1    
    13    6   77 1    
    14    6   78 1    
    15    7    8 1    
    16    8    9 1    
    17    8   79 1    
    18    8   80 1    
    19    9   10 ar   
    20    9   14 ar   
    21   10   11 ar   
    22   10   81 1    
    23   11   12 ar   
    24   11   71 1    
    25   12   13 ar   
    26   12   82 1    
    27   13   14 ar   
    28   13   15 1    
    29   14   83 1    
    30   15   16 1    
    31   15   84 1    
    32   15   85 1    
    33   16   17 1    
    34   17   18 1    
    35   17   86 1    
    36   17   87 1    
    37   18   19 1    
    38   18   37 1    
    39   18   88 1    
    40   19   20 am   BACKBONE|DICT|INTERRES
    41   19   89 1    
    42   20   21 2    
    43   20   22 1    
    44   22   23 1    
    45   22   24 1    
    46   22   90 1    
    47   23   91 1    
    48   23   92 1    
    49   23   93 1    
    50   24   25 am   BACKBONE|DICT|INTERRES
    51   24   94 1    
    52   25   26 2    
    53   25   27 1    
    54   27   28 1    
    55   27   29 1    
    56   27   95 1    
    57   28   96 1    
    58   28   97 1    
    59   28   98 1    
    60   29   30 am   BACKBONE|DICT|INTERRES
    61   29   99 1    
    62   30   31 2    
    63   30   32 1    
    64   32   33 1    
    65   32   34 1    
    66   32  100 1    
    67   33  101 1    
    68   33  102 1    
    69   33  103 1    
    70   34   35 am   BACKBONE|DICT|INTERRES
    71   34  104 1    
    72   35   36 2    
    73   37   38 2    
    74   37   39 am   BACKBONE|DICT|INTERRES
    75   39   40 1    
    76   39  105 1    
    77   40   41 1    
    78   40   42 1    
    79   40  106 1    
    80   41  107 1    
    81   41  108 1    
    82   41  109 1    
    83   42   43 2    
    84   42   44 am   BACKBONE|DICT|INTERRES
    85   44   45 1    
    86   44  110 1    
    87   45   46 1    
    88   45   47 1    
    89   45  111 1    
    90   46  112 1    
    91   46  113 1    
    92   46  114 1    
    93   47   48 2    
    94   47   49 am   BACKBONE|DICT|INTERRES
    95   49   50 1    
    96   49  115 1    
    97   50   51 1    
    98   50   52 1    
    99   50  116 1    
   100   51  117 1    
   101   51  118 1    
   102   51  119 1    
   103   52   53 2    
   104   52   54 am   BACKBONE|DICT|INTERRES
   105   54   55 1    
   106   54  120 1    
   107   55   56 1    
   108   55   57 1    
   109   55  121 1    
   110   56  122 1    
   111   56  123 1    
   112   56  124 1    
   113   57   58 2    
   114   57   59 am   BACKBONE|DICT|INTERRES
   115   59   60 1    
   116   59  125 1    
   117   60   61 1    
   118   60   62 1    
   119   60  126 1    
   120   61  127 1    
   121   61  128 1    
   122   61  129 1    
   123   62   63 2    
   124   62   64 am   BACKBONE|DICT|INTERRES
   125   64   65 1    
   126   64  130 1    
   127   65   66 1    
   128   65   69 1    
   129   65  131 1    
   130   66   67 am   BACKBONE|DICT|INTERRES
   131   66   68 2    
   132   67  132 1    
   133   67  133 1    
   134   69   70 1    
   135   69  134 1    
   136   69  135 1    
   137   70   71 1    
   138   71  136 1    
   139   71  137 1    
@<TRIPOS>SUBSTRUCTURE
     1 UNK         1 GROUP             0       ****    0 ROOT    
