@<TRIPOS>MOLECULE
3R137
137   139    1
SMALL
USER_CHARGES


@<TRIPOS>ATOM
      1 CA         26.8033   -0.3846    2.2282 C.3       0 UNK        -0.2020 
      2 C          27.2285   -0.7600    0.8166 C.2       0 UNK         0.4855 
      3 O          26.9494   -0.0176   -0.1220 O.2       0 UNK        -0.5197 
      4 N          27.8944   -1.9114    0.6624 N.am      1 UNK        -0.4892 
      5 CA         28.4225   -2.4275   -0.6111 C.3       1 UNK         0.0835 
      6 C6         29.5546   -3.4566   -0.3660 C.3       12 UNK        -0.0855 
      7 S7         31.0067   -2.6599    0.4060 S.3       12 UNK        -0.2931 
      8 C8         32.2291   -2.6552   -0.9493 C.3       12 UNK         0.0378 
      9 C9         31.6793   -2.0727   -2.2461 C.ar      12 UNK        -0.0802 
     10 C10        31.5114   -2.8981   -3.3639 C.ar      12 UNK        -0.0944 
     11 C11        30.9990   -2.3797   -4.5550 C.ar      12 UNK        -0.0787 
     12 C12        30.6606   -1.0288   -4.6263 C.ar      12 UNK        -0.0862 
     13 C13        30.8140   -0.1930   -3.5179 C.ar      12 UNK        -0.0733 
     14 C14        31.3353   -0.7180   -2.3305 C.ar      12 UNK        -0.0832 
     15 C15        30.4336    1.2771   -3.6215 C.3       12 UNK         0.0240 
     16 S16        28.8862    1.6891   -2.7461 S.3       12 UNK        -0.2522 
     17 C17        27.6419    0.5128   -3.3940 C.3       12 UNK        -0.0967 
     18 CA         27.4463    0.4831   -4.9307 C.3       5 UNK         0.0660 
     19 N          26.8362   -0.7813   -5.3534 N.am      5 UNK        -0.4015 
     20 C          26.8433   -1.2509   -6.6098 C.2       4 UNK         0.4946 
     21 O          27.3787   -0.6632   -7.5482 O.2       4 UNK        -0.5353 
     22 CA         26.0800   -2.5596   -6.8884 C.3       4 UNK         0.0277 
     23 CB         27.0303   -3.7641   -6.8180 C.3       4 UNK        -0.1981 
     24 N          24.9487   -2.7930   -5.9878 N.am      4 UNK        -0.4209 
     25 C          23.8936   -1.9792   -5.8361 C.2       3 UNK         0.4942 
     26 O          23.7341   -0.9426   -6.4791 O.2       3 UNK        -0.5208 
     27 CA         22.8747   -2.3528   -4.7441 C.3       3 UNK         0.0250 
     28 CB         21.7056   -3.1455   -5.3498 C.3       3 UNK        -0.1990 
     29 N          23.4494   -3.1091   -3.6233 N.am      3 UNK        -0.4232 
     30 C          24.4381   -2.6747   -2.8273 C.2       2 UNK         0.4993 
     31 O          24.9700   -1.5692   -2.9600 O.2       2 UNK        -0.5286 
     32 CA         24.8917   -3.6371   -1.7081 C.3       2 UNK         0.0209 
     33 CB         25.0622   -5.0906   -2.2073 C.3       2 UNK        -0.1931 
     34 N          26.1084   -3.1858   -1.0180 N.am      2 UNK        -0.4546 
     35 C          27.3326   -3.0084   -1.5412 C.2       1 UNK         0.5154 
     36 O          27.6255   -3.2822   -2.7068 O.2       1 UNK        -0.5181 
     37 C          26.7265    1.7309   -5.4913 C.2       5 UNK         0.5014 
     38 O          27.3220    2.8087   -5.4929 O.2       5 UNK        -0.5248 
     39 N          25.5120    1.5809   -6.0491 N.am      6 UNK        -0.4434 
     40 CA         24.8404    2.6273   -6.8310 C.3       6 UNK         0.0363 
     41 CB         23.3931    2.2072   -7.1291 C.3       6 UNK        -0.1936 
     42 C          25.5789    2.9780   -8.1400 C.2       6 UNK         0.5081 
     43 O          25.4163    4.0921   -8.6375 O.2       6 UNK        -0.5248 
     44 N          26.3971    2.0483   -8.6564 N.am      7 UNK        -0.4718 
     45 CA         27.3001    2.2597   -9.7917 C.3       7 UNK         0.0273 
     46 CB         27.3687    0.9622  -10.6144 C.3       7 UNK        -0.1935 
     47 C          28.7095    2.7024   -9.3475 C.2       7 UNK         0.5018 
     48 O          29.6026    2.7820  -10.1927 O.2       7 UNK        -0.5186 
     49 N          28.8963    2.9704   -8.0450 N.am      8 UNK        -0.4240 
     50 CA         30.1596    3.2924   -7.3761 C.3       8 UNK         0.0235 
     51 CB         30.7185    4.6470   -7.8704 C.3       8 UNK        -0.2000 
     52 C          31.1633    2.1252   -7.4620 C.2       8 UNK         0.4941 
     53 O          30.7497    0.9650   -7.5119 O.2       8 UNK        -0.5273 
     54 N          32.4649    2.4426   -7.4718 N.am      9 UNK        -0.4262 
     55 CA         33.5809    1.4884   -7.4806 C.3       9 UNK         0.0264 
     56 CB         34.8952    2.2621   -7.2811 C.3       9 UNK        -0.1955 
     57 C          33.6671    0.5840   -8.7274 C.2       9 UNK         0.5031 
     58 O          34.4393   -0.3757   -8.7126 O.2       9 UNK        -0.5390 
     59 N          32.8892    0.8879   -9.7765 N.am      10 UNK        -0.4204 
     60 CA         32.7269    0.0418  -10.9596 C.3       10 UNK         0.0237 
     61 CB         32.0507    0.8524  -12.0770 C.3       10 UNK        -0.1985 
     62 C          31.9332   -1.2474  -10.6737 C.2       10 UNK         0.4970 
     63 O          32.1372   -2.2320  -11.3859 O.2       10 UNK        -0.4914 
     64 N          31.0634   -1.2241   -9.6511 N.am      11 UNK        -0.4285 
     65 CA         30.2072   -2.3404   -9.2167 C.3       11 UNK         0.1007 
     66 C          29.2104   -2.8236  -10.3183 C.2       11 UNK         0.5703 
     67 N          28.6924   -4.0429  -10.2334 N.am      11 UNK        -0.7361 
     68 O          28.8579   -2.0849  -11.2358 O.2       11 UNK        -0.4986 
     69 C69        31.0218   -3.4880   -8.5424 C.3       12 UNK        -0.0947 
     70 S70        31.9644   -2.9095   -7.0916 S.3       12 UNK        -0.2240 
     71 C71        30.7731   -3.2684   -5.7654 C.3       12 UNK         0.0194 
     72 H72        27.1068   -1.1330    2.9600 H         1 UNK         0.0906 
     73 H73        27.2506    0.5676    2.5124 H         1 UNK         0.0906 
     74 H74        25.7198   -0.2801    2.2787 H         1 UNK         0.0906 
     75 H75        28.1110   -2.4698    1.4764 H         1 UNK         0.3140 
     76 H76        28.8507   -1.5842   -1.1568 H         1 UNK         0.1085 
     77 H77        29.8604   -3.9408   -1.2950 H         1 UNK         0.0836 
     78 H78        29.2083   -4.2615    0.2848 H         1 UNK         0.0836 
     79 H79        32.5822   -3.6761   -1.1039 H         1 UNK         0.0731 
     80 H80        33.1000   -2.0769   -0.6378 H         1 UNK         0.0731 
     81 H81        31.7695   -3.9467   -3.3050 H         1 UNK         0.1312 
     82 H82        30.2816   -0.6368   -5.5589 H         1 UNK         0.1406 
     83 H83        31.4577   -0.0773   -1.4674 H         1 UNK         0.1631 
     84 H84        30.3435    1.5797   -4.6640 H         1 UNK         0.0717 
     85 H85        31.2392    1.8841   -3.2062 H         1 UNK         0.0717 
     86 H86        27.9519   -0.4744   -3.0520 H         1 UNK         0.0934 
     87 H87        26.6914    0.7026   -2.8916 H         1 UNK         0.0934 
     88 H88        28.4286    0.5064   -5.3973 H         1 UNK         0.0739 
     89 H89        26.3380   -1.2971   -4.6355 H         1 UNK         0.3093 
     90 H90        25.6835   -2.4923   -7.9038 H         1 UNK         0.0818 
     91 H91        27.4336   -3.9017   -5.8134 H         1 UNK         0.0819 
     92 H92        26.5261   -4.6861   -7.1079 H         1 UNK         0.0819 
     93 H93        27.8722   -3.6334   -7.4967 H         1 UNK         0.0819 
     94 H94        24.9953   -3.6174   -5.4073 H         1 UNK         0.3041 
     95 H95        22.4812   -1.4178   -4.3395 H         1 UNK         0.0784 
     96 H96        21.2453   -2.5945   -6.1715 H         1 UNK         0.0793 
     97 H97        22.0311   -4.1085   -5.7456 H         1 UNK         0.0793 
     98 H98        20.9255   -3.3308   -4.6112 H         1 UNK         0.0793 
     99 H99        23.0532   -4.0214   -3.4475 H         1 UNK         0.3024 
    100 H100       24.0983   -3.6276   -0.9587 H         1 UNK         0.1171 
    101 H101       25.4570   -5.7332   -1.4201 H         1 UNK         0.0786 
    102 H102       24.1114   -5.5243   -2.5178 H         1 UNK         0.0786 
    103 H103       25.7434   -5.1528   -3.0568 H         1 UNK         0.0786 
    104 H104       25.9821   -2.8859   -0.0618 H         1 UNK         0.2977 
    105 H105       25.0689    0.6681   -6.0458 H         1 UNK         0.3127 
    106 H106       24.8113    3.5314   -6.2191 H         1 UNK         0.0770 
    107 H107       23.3532    1.3410   -7.7905 H         1 UNK         0.0814 
    108 H108       22.8480    3.0142   -7.6204 H         1 UNK         0.0814 
    109 H109       22.8521    1.9588   -6.2159 H         1 UNK         0.0814 
    110 H110       26.4970    1.1574   -8.1797 H         1 UNK         0.2983 
    111 H111       26.9050    3.0479  -10.4361 H         1 UNK         0.0947 
    112 H112       27.9715    1.0955  -11.5137 H         1 UNK         0.0806 
    113 H113       26.3784    0.6384  -10.9344 H         1 UNK         0.0806 
    114 H114       27.8191    0.1505  -10.0428 H         1 UNK         0.0806 
    115 H115       28.1063    2.8595   -7.4201 H         1 UNK         0.3000 
    116 H116       29.9155    3.4033   -6.3189 H         1 UNK         0.0850 
    117 H117       31.5269    5.0038   -7.2314 H         1 UNK         0.0810 
    118 H118       29.9464    5.4165   -7.8552 H         1 UNK         0.0810 
    119 H119       31.1014    4.5866   -8.8899 H         1 UNK         0.0810 
    120 H120       32.7148    3.4208   -7.4444 H         1 UNK         0.3040 
    121 H121       33.4435    0.8233   -6.6250 H         1 UNK         0.0766 
    122 H122       34.8885    2.8251   -6.3476 H         1 UNK         0.0812 
    123 H123       35.0786    2.9623   -8.0971 H         1 UNK         0.0812 
    124 H124       35.7476    1.5825   -7.2382 H         1 UNK         0.0812 
    125 H125       32.2788    1.6897   -9.7025 H         1 UNK         0.3205 
    126 H126       33.7204   -0.2521  -11.3053 H         1 UNK         0.0754 
    127 H127       31.9694    0.2619  -12.9907 H         1 UNK         0.0769 
    128 H128       32.6204    1.7493  -12.3206 H         1 UNK         0.0769 
    129 H129       31.0415    1.1586  -11.7989 H         1 UNK         0.0769 
    130 H130       30.9695   -0.3763   -9.1026 H         1 UNK         0.2981 
    131 H131       29.5657   -1.9076   -8.4497 H         1 UNK         0.0541 
    132 H132       28.9619   -4.6794   -9.5016 H         1 UNK         0.3459 
    133 H133       28.0378   -4.3403  -10.9395 H         1 UNK         0.3459 
    134 H134       30.3728   -4.3009   -8.2148 H         1 UNK         0.0612 
    135 H135       31.7213   -3.9297   -9.2535 H         1 UNK         0.0612 
    136 H136       30.8333   -4.3245   -5.4986 H         1 UNK         0.0624 
    137 H137       29.7612   -3.0944   -6.1293 H         1 UNK         0.0624 
@<TRIPOS>BOND
     1    1    2 1    
     2    1   72 1    
     3    1   73 1    
     4    1   74 1    
     5    2    3 2    
     6    2    4 am   BACKBONE|DICT|INTERRES
     7    4    5 1    
     8    4   75 1    
     9    5    6 1    
    10    5   35 1    
    11    5   76 1    
    12    6    7 1    
    13    6   77 1    
    14    6   78 1    
    15    7    8 1    
    16    8    9 1    
    17    8   79 1    
    18    8   80 1    
    19    9   10 ar   
    20    9   14 ar   
    21   10   11 ar   
    22   10   81 1    
    23   11   12 ar   
    24   11   71 1    
    25   12   13 ar   
    26   12   82 1    
    27   13   14 ar   
    28   13   15 1    
    29   14   83 1    
    30   15   16 1    
    31   15   84 1    
    32   15   85 1    
    33   16   17 1    
    34   17   18 1    
    35   17   86 1    
    36   17   87 1    
    37   18   19 1    
    38   18   37 1    
    39   18   88 1    
    40   19   20 am   BACKBONE|DICT|INTERRES
    41   19   89 1    
    42   20   21 2    
    43   20   22 1    
    44   22   23 1    
    45   22   24 1    
    46   22   90 1    
    47   23   91 1    
    48   23   92 1    
    49   23   93 1    
    50   24   25 am   BACKBONE|DICT|INTERRES
    51   24   94 1    
    52   25   26 2    
    53   25   27 1    
    54   27   28 1    
    55   27   29 1    
    56   27   95 1    
    57   28   96 1    
    58   28   97 1    
    59   28   98 1    
    60   29   30 am   BACKBONE|DICT|INTERRES
    61   29   99 1    
    62   30   31 2    
    63   30   32 1    
    64   32   33 1    
    65   32   34 1    
    66   32  100 1    
    67   33  101 1    
    68   33  102 1    
    69   33  103 1    
    70   34   35 am   BACKBONE|DICT|INTERRES
    71   34  104 1    
    72   35   36 2    
    73   37   38 2    
    74   37   39 am   BACKBONE|DICT|INTERRES
    75   39   40 1    
    76   39  105 1    
    77   40   41 1    
    78   40   42 1    
    79   40  106 1    
    80   41  107 1    
    81   41  108 1    
    82   41  109 1    
    83   42   43 2    
    84   42   44 am   BACKBONE|DICT|INTERRES
    85   44   45 1    
    86   44  110 1    
    87   45   46 1    
    88   45   47 1    
    89   45  111 1    
    90   46  112 1    
    91   46  113 1    
    92   46  114 1    
    93   47   48 2    
    94   47   49 am   BACKBONE|DICT|INTERRES
    95   49   50 1    
    96   49  115 1    
    97   50   51 1    
    98   50   52 1    
    99   50  116 1    
   100   51  117 1    
   101   51  118 1    
   102   51  119 1    
   103   52   53 2    
   104   52   54 am   BACKBONE|DICT|INTERRES
   105   54   55 1    
   106   54  120 1    
   107   55   56 1    
   108   55   57 1    
   109   55  121 1    
   110   56  122 1    
   111   56  123 1    
   112   56  124 1    
   113   57   58 2    
   114   57   59 am   BACKBONE|DICT|INTERRES
   115   59   60 1    
   116   59  125 1    
   117   60   61 1    
   118   60   62 1    
   119   60  126 1    
   120   61  127 1    
   121   61  128 1    
   122   61  129 1    
   123   62   63 2    
   124   62   64 am   BACKBONE|DICT|INTERRES
   125   64   65 1    
   126   64  130 1    
   127   65   66 1    
   128   65   69 1    
   129   65  131 1    
   130   66   67 am   BACKBONE|DICT|INTERRES
   131   66   68 2    
   132   67  132 1    
   133   67  133 1    
   134   69   70 1    
   135   69  134 1    
   136   69  135 1    
   137   70   71 1    
   138   71  136 1    
   139   71  137 1    
@<TRIPOS>SUBSTRUCTURE
     1 UNK         1 GROUP             0       ****    0 ROOT    
