@<TRIPOS>MOLECULE
3R137
137   139    1
SMALL
USER_CHARGES


@<TRIPOS>ATOM
      1 CA         27.8079   -6.0345   -6.0784 C.3       0 UNK        -0.2020 
      2 C          27.2920   -5.3428   -4.8268 C.2       0 UNK         0.4855 
      3 O          26.1283   -4.9434   -4.7787 O.2       0 UNK        -0.5197 
      4 N          28.1498   -5.2003   -3.8103 N.am      1 UNK        -0.4892 
      5 CA         27.8236   -4.6233   -2.5022 C.3       1 UNK         0.0835 
      6 C6         28.9399   -4.8510   -1.4473 C.3       12 UNK        -0.0855 
      7 S7         30.6504   -4.6469   -2.0616 S.3       12 UNK        -0.2931 
      8 C8         31.3461   -3.3811   -0.9502 C.3       12 UNK         0.0378 
      9 C9         31.4419   -2.0230   -1.6291 C.ar      12 UNK        -0.0802 
     10 C10        32.2968   -1.8584   -2.7213 C.ar      12 UNK        -0.0944 
     11 C11        32.4343   -0.6164   -3.3521 C.ar      12 UNK        -0.0787 
     12 C12        31.7152    0.4730   -2.8484 C.ar      12 UNK        -0.0862 
     13 C13        30.8622    0.3294   -1.7475 C.ar      12 UNK        -0.0733 
     14 C14        30.7214   -0.9269   -1.1490 C.ar      12 UNK        -0.0832 
     15 C15        30.1166    1.5305   -1.1723 C.3       12 UNK         0.0240 
     16 S16        29.2208    2.5100   -2.4227 S.3       12 UNK        -0.2522 
     17 C17        28.0442    1.2869   -3.0853 C.3       12 UNK        -0.0967 
     18 CA         27.9533    1.3570   -4.6305 C.3       5 UNK         0.0660 
     19 N          27.6558    0.0505   -5.2227 N.am      5 UNK        -0.4015 
     20 C          27.6106   -0.2033   -6.5383 C.2       4 UNK         0.4946 
     21 O          27.8821    0.6184   -7.4129 O.2       4 UNK        -0.5353 
     22 CA         27.1360   -1.6023   -6.9539 C.3       4 UNK         0.0277 
     23 CB         28.3077   -2.5936   -6.9238 C.3       4 UNK        -0.1981 
     24 N          26.0216   -2.0809   -6.1276 N.am      4 UNK        -0.4209 
     25 C          24.8124   -1.4971   -6.1019 C.2       3 UNK         0.4942 
     26 O          24.4855   -0.5677   -6.8394 O.2       3 UNK        -0.5208 
     27 CA         23.8247   -1.9779   -5.0275 C.3       3 UNK         0.0250 
     28 CB         23.1114   -3.2683   -5.4604 C.3       3 UNK        -0.1990 
     29 N          24.4735   -2.1624   -3.7263 N.am      3 UNK        -0.4232 
     30 C          24.9655   -1.1543   -2.9887 C.2       2 UNK         0.4993 
     31 O          24.8751    0.0291   -3.3105 O.2       2 UNK        -0.5286 
     32 CA         25.7167   -1.5098   -1.6939 C.3       2 UNK         0.0209 
     33 CB         24.7635   -1.4567   -0.4898 C.3       2 UNK        -0.1931 
     34 N          26.3789   -2.8152   -1.7345 N.am      2 UNK        -0.4546 
     35 C          27.3612   -3.1528   -2.5823 C.2       1 UNK         0.5154 
     36 O          27.8514   -2.3733   -3.4047 O.2       1 UNK        -0.5181 
     37 C          26.9575    2.4427   -5.0942 C.2       5 UNK         0.5014 
     38 O          27.3843    3.4870   -5.5882 O.2       5 UNK        -0.5248 
     39 N          25.6520    2.1575   -4.9707 N.am      6 UNK        -0.4434 
     40 CA         24.5516    3.0245   -5.4035 C.3       6 UNK         0.0363 
     41 CB         23.2148    2.4240   -4.9407 C.3       6 UNK        -0.1936 
     42 C          24.5313    3.2791   -6.9206 C.2       6 UNK         0.5081 
     43 O          24.2265    4.3951   -7.3416 O.2       6 UNK        -0.5248 
     44 N          24.8811    2.2563   -7.7122 N.am      7 UNK        -0.4718 
     45 CA         25.0367    2.3427   -9.1675 C.3       7 UNK         0.0273 
     46 CB         25.0170    0.9210   -9.7536 C.3       7 UNK        -0.1935 
     47 C          26.3126    3.0837   -9.6151 C.2       7 UNK         0.5018 
     48 O          26.4273    3.3956  -10.8013 O.2       7 UNK        -0.5186 
     49 N          27.2466    3.3262   -8.6817 N.am      8 UNK        -0.4240 
     50 CA         28.5926    3.8766   -8.8792 C.3       8 UNK         0.0235 
     51 CB         28.5321    5.3414   -9.3629 C.3       8 UNK        -0.2000 
     52 C          29.4750    2.9757   -9.7670 C.2       8 UNK         0.4941 
     53 O          30.2705    3.4795  -10.5634 O.2       8 UNK        -0.5273 
     54 N          29.3141    1.6558   -9.6137 N.am      9 UNK        -0.4262 
     55 CA         30.1011    0.6280  -10.2890 C.3       9 UNK         0.0264 
     56 CB         29.2253   -0.6246  -10.4613 C.3       9 UNK        -0.1955 
     57 C          31.3640    0.3039   -9.4772 C.2       9 UNK         0.5031 
     58 O          31.4300    0.5993   -8.2800 O.2       9 UNK        -0.5390 
     59 N          32.3378   -0.3412  -10.1316 N.am      10 UNK        -0.4204 
     60 CA         33.6230   -0.7567   -9.5576 C.3       10 UNK         0.0237 
     61 CB         34.6258   -0.9920  -10.7036 C.3       10 UNK        -0.1985 
     62 C          33.4960   -1.9758   -8.6187 C.2       10 UNK         0.4970 
     63 O          34.1261   -3.0069   -8.8587 O.2       10 UNK        -0.4914 
     64 N          32.6712   -1.8287   -7.5752 N.am      11 UNK        -0.4285 
     65 CA         32.4132   -2.7942   -6.4915 C.3       11 UNK         0.1007 
     66 C          31.6586   -4.0899   -6.9234 C.2       11 UNK         0.5703 
     67 N          31.1533   -4.1938   -8.1471 N.am      11 UNK        -0.7361 
     68 O          31.4910   -5.0057   -6.1222 O.2       11 UNK        -0.4986 
     69 C69        33.6908   -3.1118   -5.6585 C.3       12 UNK        -0.0947 
     70 S70        34.5852   -1.6901   -4.9170 S.3       12 UNK        -0.2240 
     71 C71        33.3345   -0.3936   -4.5715 C.3       12 UNK         0.0194 
     72 H72        28.8563   -5.7982   -6.2582 H         1 UNK         0.0906 
     73 H73        27.7100   -7.1148   -5.9765 H         1 UNK         0.0906 
     74 H74        27.2347   -5.7253   -6.9519 H         1 UNK         0.0906 
     75 H75        29.1150   -5.4820   -3.9195 H         1 UNK         0.3140 
     76 H76        26.9554   -5.1890   -2.1553 H         1 UNK         0.1085 
     77 H77        28.7730   -4.2349   -0.5620 H         1 UNK         0.0836 
     78 H78        28.8693   -5.8786   -1.0869 H         1 UNK         0.0836 
     79 H79        32.3506   -3.6940   -0.6617 H         1 UNK         0.0731 
     80 H80        30.7765   -3.3222   -0.0220 H         1 UNK         0.0731 
     81 H81        32.8507   -2.7169   -3.0633 H         1 UNK         0.1312 
     82 H82        31.8215    1.4434   -3.3142 H         1 UNK         0.1406 
     83 H83        30.0687   -1.0476   -0.2950 H         1 UNK         0.1631 
     84 H84        30.8367    2.1794   -0.6722 H         1 UNK         0.0717 
     85 H85        29.4045    1.2159   -0.4077 H         1 UNK         0.0717 
     86 H86        28.3734    0.2928   -2.7812 H         1 UNK         0.0934 
     87 H87        27.0744    1.4329   -2.6064 H         1 UNK         0.0934 
     88 H88        28.9355    1.6312   -5.0227 H         1 UNK         0.0739 
     89 H89        27.4835   -0.7166   -4.5811 H         1 UNK         0.3093 
     90 H90        26.7813   -1.5323   -7.9842 H         1 UNK         0.0818 
     91 H91        28.0454   -3.5252   -7.4218 H         1 UNK         0.0819 
     92 H92        29.1747   -2.1883   -7.4460 H         1 UNK         0.0819 
     93 H93        28.6272   -2.8231   -5.9073 H         1 UNK         0.0819 
     94 H94        26.2047   -2.8491   -5.4922 H         1 UNK         0.3041 
     95 H95        23.0648   -1.2018   -4.9114 H         1 UNK         0.0784 
     96 H96        22.5871   -3.1217   -6.4056 H         1 UNK         0.0793 
     97 H97        23.8076   -4.0946   -5.6021 H         1 UNK         0.0793 
     98 H98        22.3693   -3.5773   -4.7242 H         1 UNK         0.0793 
     99 H99        24.6155   -3.1127   -3.4141 H         1 UNK         0.3024 
    100 H100       26.4894   -0.7532   -1.5476 H         1 UNK         0.1171 
    101 H101       24.2757   -0.4829   -0.4220 H         1 UNK         0.0786 
    102 H102       25.2974   -1.6140    0.4476 H         1 UNK         0.0786 
    103 H103       23.9777   -2.2099   -0.5611 H         1 UNK         0.0786 
    104 H104       26.0323   -3.5099   -1.0880 H         1 UNK         0.2977 
    105 H105       25.3840    1.2905   -4.5051 H         1 UNK         0.3127 
    106 H106       24.6818    3.9899   -4.9101 H         1 UNK         0.0770 
    107 H107       23.0448    1.4386   -5.3765 H         1 UNK         0.0814 
    108 H108       22.3780    3.0602   -5.2315 H         1 UNK         0.0814 
    109 H109       23.1816    2.3190   -3.8561 H         1 UNK         0.0814 
    110 H110       25.0466    1.3469   -7.2906 H         1 UNK         0.2983 
    111 H111       24.1843    2.8925   -9.5724 H         1 UNK         0.0947 
    112 H112       25.0814    0.9435  -10.8422 H         1 UNK         0.0806 
    113 H113       24.0971    0.3967   -9.4943 H         1 UNK         0.0806 
    114 H114       25.8556    0.3264   -9.3898 H         1 UNK         0.0806 
    115 H115       27.0518    3.0103   -7.7384 H         1 UNK         0.3000 
    116 H116       29.0619    3.8752   -7.8942 H         1 UNK         0.0850 
    117 H117       29.5259    5.7906   -9.3707 H         1 UNK         0.0810 
    118 H118       27.9078    5.9488   -8.7077 H         1 UNK         0.0810 
    119 H119       28.1337    5.4192  -10.3748 H         1 UNK         0.0810 
    120 H120       28.7103    1.3289   -8.8591 H         1 UNK         0.3040 
    121 H121       30.4003    0.9870  -11.2761 H         1 UNK         0.0766 
    122 H122       28.3275   -0.4006  -11.0380 H         1 UNK         0.0812 
    123 H123       28.9083   -1.0295   -9.5010 H         1 UNK         0.0812 
    124 H124       29.7594   -1.4149  -10.9900 H         1 UNK         0.0812 
    125 H125       32.1889   -0.5773  -11.1026 H         1 UNK         0.3205 
    126 H126       34.0076    0.0664   -8.9511 H         1 UNK         0.0754 
    127 H127       35.6097   -1.2576  -10.3143 H         1 UNK         0.0769 
    128 H128       34.7534   -0.0951  -11.3102 H         1 UNK         0.0769 
    129 H129       34.3060   -1.8008  -11.3620 H         1 UNK         0.0769 
    130 H130       32.1613   -0.9499   -7.5213 H         1 UNK         0.2981 
    131 H131       31.7039   -2.3001   -5.8277 H         1 UNK         0.0541 
    132 H132       31.3008   -3.4637   -8.8232 H         1 UNK         0.3459 
    133 H133       30.6676   -5.0363   -8.4087 H         1 UNK         0.3459 
    134 H134       33.4508   -3.8016   -4.8492 H         1 UNK         0.0612 
    135 H135       34.4086   -3.6522   -6.2771 H         1 UNK         0.0612 
    136 H136       33.8902    0.5315   -4.4116 H         1 UNK         0.0624 
    137 H137       32.7165   -0.2098   -5.4488 H         1 UNK         0.0624 
@<TRIPOS>BOND
     1    1    2 1    
     2    1   72 1    
     3    1   73 1    
     4    1   74 1    
     5    2    3 2    
     6    2    4 am   BACKBONE|DICT|INTERRES
     7    4    5 1    
     8    4   75 1    
     9    5    6 1    
    10    5   35 1    
    11    5   76 1    
    12    6    7 1    
    13    6   77 1    
    14    6   78 1    
    15    7    8 1    
    16    8    9 1    
    17    8   79 1    
    18    8   80 1    
    19    9   10 ar   
    20    9   14 ar   
    21   10   11 ar   
    22   10   81 1    
    23   11   12 ar   
    24   11   71 1    
    25   12   13 ar   
    26   12   82 1    
    27   13   14 ar   
    28   13   15 1    
    29   14   83 1    
    30   15   16 1    
    31   15   84 1    
    32   15   85 1    
    33   16   17 1    
    34   17   18 1    
    35   17   86 1    
    36   17   87 1    
    37   18   19 1    
    38   18   37 1    
    39   18   88 1    
    40   19   20 am   BACKBONE|DICT|INTERRES
    41   19   89 1    
    42   20   21 2    
    43   20   22 1    
    44   22   23 1    
    45   22   24 1    
    46   22   90 1    
    47   23   91 1    
    48   23   92 1    
    49   23   93 1    
    50   24   25 am   BACKBONE|DICT|INTERRES
    51   24   94 1    
    52   25   26 2    
    53   25   27 1    
    54   27   28 1    
    55   27   29 1    
    56   27   95 1    
    57   28   96 1    
    58   28   97 1    
    59   28   98 1    
    60   29   30 am   BACKBONE|DICT|INTERRES
    61   29   99 1    
    62   30   31 2    
    63   30   32 1    
    64   32   33 1    
    65   32   34 1    
    66   32  100 1    
    67   33  101 1    
    68   33  102 1    
    69   33  103 1    
    70   34   35 am   BACKBONE|DICT|INTERRES
    71   34  104 1    
    72   35   36 2    
    73   37   38 2    
    74   37   39 am   BACKBONE|DICT|INTERRES
    75   39   40 1    
    76   39  105 1    
    77   40   41 1    
    78   40   42 1    
    79   40  106 1    
    80   41  107 1    
    81   41  108 1    
    82   41  109 1    
    83   42   43 2    
    84   42   44 am   BACKBONE|DICT|INTERRES
    85   44   45 1    
    86   44  110 1    
    87   45   46 1    
    88   45   47 1    
    89   45  111 1    
    90   46  112 1    
    91   46  113 1    
    92   46  114 1    
    93   47   48 2    
    94   47   49 am   BACKBONE|DICT|INTERRES
    95   49   50 1    
    96   49  115 1    
    97   50   51 1    
    98   50   52 1    
    99   50  116 1    
   100   51  117 1    
   101   51  118 1    
   102   51  119 1    
   103   52   53 2    
   104   52   54 am   BACKBONE|DICT|INTERRES
   105   54   55 1    
   106   54  120 1    
   107   55   56 1    
   108   55   57 1    
   109   55  121 1    
   110   56  122 1    
   111   56  123 1    
   112   56  124 1    
   113   57   58 2    
   114   57   59 am   BACKBONE|DICT|INTERRES
   115   59   60 1    
   116   59  125 1    
   117   60   61 1    
   118   60   62 1    
   119   60  126 1    
   120   61  127 1    
   121   61  128 1    
   122   61  129 1    
   123   62   63 2    
   124   62   64 am   BACKBONE|DICT|INTERRES
   125   64   65 1    
   126   64  130 1    
   127   65   66 1    
   128   65   69 1    
   129   65  131 1    
   130   66   67 am   BACKBONE|DICT|INTERRES
   131   66   68 2    
   132   67  132 1    
   133   67  133 1    
   134   69   70 1    
   135   69  134 1    
   136   69  135 1    
   137   70   71 1    
   138   71  136 1    
   139   71  137 1    
@<TRIPOS>SUBSTRUCTURE
     1 UNK         1 GROUP             0       ****    0 ROOT    
