@<TRIPOS>MOLECULE
3R137
137   139    1
SMALL
USER_CHARGES


@<TRIPOS>ATOM
      1 CA         25.3248   -5.5947   -0.0157 C.3       0 UNK        -0.2020 
      2 C          25.2455   -4.0768    0.0514 C.2       0 UNK         0.4855 
      3 O          24.1578   -3.5285    0.2296 O.2       0 UNK        -0.5197 
      4 N          26.3893   -3.3962   -0.0824 N.am      1 UNK        -0.4892 
      5 CA         26.4938   -1.9361   -0.1567 C.3       1 UNK         0.0835 
      6 C6         27.8959   -1.4358    0.2887 C.3       12 UNK        -0.0855 
      7 S7         29.2975   -2.2678   -0.5382 S.3       12 UNK        -0.2931 
      8 C8         29.7261   -1.0424   -1.8134 C.3       12 UNK         0.0378 
      9 C9         30.4567   -1.6891   -2.9791 C.ar      12 UNK        -0.0802 
     10 C10        31.7681   -1.3245   -3.2952 C.ar      12 UNK        -0.0944 
     11 C11        32.4222   -1.9061   -4.3865 C.ar      12 UNK        -0.0787 
     12 C12        31.7443   -2.8411   -5.1781 C.ar      12 UNK        -0.0862 
     13 C13        30.4291   -3.2113   -4.8723 C.ar      12 UNK        -0.0733 
     14 C14        29.8016   -2.6437   -3.7604 C.ar      12 UNK        -0.0832 
     15 C15        29.6931   -4.2379   -5.7247 C.3       12 UNK         0.0240 
     16 S16        28.4850   -3.4644   -6.8519 S.3       12 UNK        -0.2522 
     17 C17        27.0668   -3.1812   -5.7357 C.3       12 UNK        -0.0967 
     18 CA         25.7512   -2.8207   -6.4701 C.3       5 UNK         0.0660 
     19 N          24.6132   -2.9346   -5.5716 N.am      5 UNK        -0.4015 
     20 C          23.7946   -3.9785   -5.4132 C.2       4 UNK         0.4946 
     21 O          23.9436   -5.0611   -5.9809 O.2       4 UNK        -0.5353 
     22 CA         22.5975   -3.7766   -4.4591 C.3       4 UNK         0.0277 
     23 CB         22.8723   -4.4614   -3.1111 C.3       4 UNK        -0.1981 
     24 N          22.3026   -2.3593   -4.2197 N.am      4 UNK        -0.4209 
     25 C          21.7836   -1.5172   -5.1235 C.2       3 UNK         0.4942 
     26 O          21.2891   -1.8830   -6.1899 O.2       3 UNK        -0.5208 
     27 CA         21.9214   -0.0112   -4.8372 C.3       3 UNK         0.0250 
     28 CB         20.7520    0.5223   -3.9859 C.3       3 UNK        -0.1990 
     29 N          23.2406    0.3531   -4.2890 N.am      3 UNK        -0.4232 
     30 C          23.7330    0.1158   -3.0654 C.2       2 UNK         0.4993 
     31 O          23.0861   -0.4200   -2.1625 O.2       2 UNK        -0.5286 
     32 CA         25.2013    0.5164   -2.8287 C.3       2 UNK         0.0209 
     33 CB         25.3383    2.0407   -2.6802 C.3       2 UNK        -0.1931 
     34 N          25.7418   -0.1274   -1.6282 N.am      2 UNK        -0.4546 
     35 C          26.0943   -1.4178   -1.5570 C.2       1 UNK         0.5154 
     36 O          26.1270   -2.1678   -2.5376 O.2       1 UNK        -0.5181 
     37 C          25.7674   -1.3617   -6.9579 C.2       5 UNK         0.5014 
     38 O          25.2458   -0.4785   -6.2686 O.2       5 UNK        -0.5248 
     39 N          26.4254   -1.1197   -8.0977 N.am      6 UNK        -0.4434 
     40 CA         26.7752    0.2237   -8.5733 C.3       6 UNK         0.0363 
     41 CB         27.2119    0.1372  -10.0431 C.3       6 UNK        -0.1936 
     42 C          27.8715    0.8948   -7.7195 C.2       6 UNK         0.5081 
     43 O          28.0199    2.1157   -7.7829 O.2       6 UNK        -0.5248 
     44 N          28.6083    0.0895   -6.9377 N.am      7 UNK        -0.4718 
     45 CA         29.6748    0.4772   -6.0143 C.3       7 UNK         0.0273 
     46 CB         29.0927    1.2452   -4.8053 C.3       7 UNK        -0.1935 
     47 C          30.8185    1.1935   -6.7502 C.2       7 UNK         0.5018 
     48 O          31.2761    0.6811   -7.7747 O.2       7 UNK        -0.5186 
     49 N          31.2499    2.3579   -6.2444 N.am      8 UNK        -0.4240 
     50 CA         32.3640    3.1628   -6.7601 C.3       8 UNK         0.0235 
     51 CB         32.5280    4.4161   -5.8860 C.3       8 UNK        -0.2000 
     52 C          32.2569    3.5547   -8.2451 C.2       8 UNK         0.4941 
     53 O          33.2909    3.7537   -8.8827 O.2       8 UNK        -0.5273 
     54 N          31.0305    3.6163   -8.7853 N.am      9 UNK        -0.4262 
     55 CA         30.7687    3.8279  -10.2112 C.3       9 UNK         0.0264 
     56 CB         29.2740    4.1194  -10.4185 C.3       9 UNK        -0.1955 
     57 C          31.2213    2.6534  -11.1018 C.2       9 UNK         0.5031 
     58 O          31.4571    2.8728  -12.2910 O.2       9 UNK        -0.5390 
     59 N          31.3395    1.4473  -10.5279 N.am      10 UNK        -0.4204 
     60 CA         31.8463    0.2509  -11.1969 C.3       10 UNK         0.0237 
     61 CB         30.8777   -0.9222  -10.9728 C.3       10 UNK        -0.1985 
     62 C          33.2542   -0.1056  -10.7033 C.2       10 UNK         0.4970 
     63 O          34.1360   -0.3227  -11.5355 O.2       10 UNK        -0.4914 
     64 N          33.4434   -0.1838   -9.3779 N.am      11 UNK        -0.4285 
     65 CA         34.7064   -0.6211   -8.7611 C.3       11 UNK         0.1007 
     66 C          35.8263    0.4579   -8.6885 C.2       11 UNK         0.5703 
     67 N          35.5563    1.7290   -8.9608 N.am      11 UNK        -0.7361 
     68 O          36.9742    0.1277   -8.3993 O.2       11 UNK        -0.4986 
     69 C69        34.4744   -1.3652   -7.4180 C.3       12 UNK        -0.0947 
     70 S70        34.0130   -0.3050   -6.0070 S.3       12 UNK        -0.2240 
     71 C71        33.8709   -1.5427   -4.6817 C.3       12 UNK         0.0194 
     72 H72        24.7099   -5.9658   -0.8352 H         1 UNK         0.0906 
     73 H73        26.3454   -5.9433   -0.1732 H         1 UNK         0.0906 
     74 H74        24.9563   -6.0314    0.9121 H         1 UNK         0.0906 
     75 H75        27.2535   -3.8892   -0.2603 H         1 UNK         0.3140 
     76 H76        25.7662   -1.5195    0.5442 H         1 UNK         0.1085 
     77 H77        27.9853   -0.3536    0.1752 H         1 UNK         0.0836 
     78 H78        28.0072   -1.6168    1.3590 H         1 UNK         0.0836 
     79 H79        30.3251   -0.2500   -1.3618 H         1 UNK         0.0731 
     80 H80        28.8221   -0.5678   -2.1953 H         1 UNK         0.0731 
     81 H81        32.2839   -0.5931   -2.6881 H         1 UNK         0.1312 
     82 H82        32.2451   -3.2876   -6.0257 H         1 UNK         0.1406 
     83 H83        28.7976   -2.9413   -3.4920 H         1 UNK         0.1631 
     84 H84        29.1934   -4.9667   -5.0848 H         1 UNK         0.0717 
     85 H85        30.4069   -4.8049   -6.3241 H         1 UNK         0.0717 
     86 H86        26.9197   -4.0904   -5.1500 H         1 UNK         0.0934 
     87 H87        27.3177   -2.3984   -5.0188 H         1 UNK         0.0934 
     88 H88        25.5999   -3.4807   -7.3271 H         1 UNK         0.0739 
     89 H89        24.3903   -2.0671   -5.1030 H         1 UNK         0.3093 
     90 H90        21.7223   -4.2419   -4.9174 H         1 UNK         0.0818 
     91 H91        22.0222   -4.3687   -2.4350 H         1 UNK         0.0819 
     92 H92        23.0664   -5.5265   -3.2447 H         1 UNK         0.0819 
     93 H93        23.7431   -4.0300   -2.6156 H         1 UNK         0.0819 
     94 H94        22.6420   -1.9547   -3.3512 H         1 UNK         0.3041 
     95 H95        21.8682    0.4914   -5.8046 H         1 UNK         0.0784 
     96 H96        19.8016    0.3682   -4.4984 H         1 UNK         0.0793 
     97 H97        20.6791    0.0199   -3.0211 H         1 UNK         0.0793 
     98 H98        20.8513    1.5919   -3.8015 H         1 UNK         0.0793 
     99 H99        23.8901    0.7073   -4.9832 H         1 UNK         0.3024 
    100 H100       25.7891    0.1924   -3.6911 H         1 UNK         0.1171 
    101 H101       26.3780    2.3316   -2.5273 H         1 UNK         0.0786 
    102 H102       24.9905    2.5569   -3.5760 H         1 UNK         0.0786 
    103 H103       24.7557    2.4190   -1.8392 H         1 UNK         0.0786 
    104 H104       25.7076    0.4168   -0.7784 H         1 UNK         0.2977 
    105 H105       26.8296   -1.8986   -8.5994 H         1 UNK         0.3127 
    106 H106       25.8861    0.8555   -8.5149 H         1 UNK         0.0770 
    107 H107       28.0655   -0.5281  -10.1638 H         1 UNK         0.0814 
    108 H108       27.5006    1.1157  -10.4283 H         1 UNK         0.0814 
    109 H109       26.4050   -0.2334  -10.6754 H         1 UNK         0.0814 
    110 H110       28.4437   -0.9051   -7.0075 H         1 UNK         0.2983 
    111 H111       30.1059   -0.4511   -5.6430 H         1 UNK         0.0947 
    112 H112       29.8525    1.4203   -4.0426 H         1 UNK         0.0806 
    113 H113       28.2972    0.6706   -4.3308 H         1 UNK         0.0806 
    114 H114       28.6710    2.2093   -5.0919 H         1 UNK         0.0806 
    115 H115       30.7942    2.7066   -5.4140 H         1 UNK         0.3000 
    116 H116       33.2678    2.5587   -6.6601 H         1 UNK         0.0850 
    117 H117       33.3668    5.0241   -6.2286 H         1 UNK         0.0810 
    118 H118       32.7265    4.1533   -4.8467 H         1 UNK         0.0810 
    119 H119       31.6375    5.0455   -5.9114 H         1 UNK         0.0810 
    120 H120       30.2308    3.4144   -8.1991 H         1 UNK         0.3040 
    121 H121       31.3324    4.7088  -10.5259 H         1 UNK         0.0766 
    122 H122       28.6534    3.2730  -10.1253 H         1 UNK         0.0812 
    123 H123       29.0600    4.3314  -11.4670 H         1 UNK         0.0812 
    124 H124       28.9535    4.9869   -9.8414 H         1 UNK         0.0812 
    125 H125       31.1630    1.3578   -9.5299 H         1 UNK         0.3205 
    126 H126       31.9146    0.4169  -12.2742 H         1 UNK         0.0754 
    127 H127       31.2901   -1.8532  -11.3646 H         1 UNK         0.0769 
    128 H128       29.9362   -0.7486  -11.4922 H         1 UNK         0.0769 
    129 H129       30.6600   -1.0792   -9.9153 H         1 UNK         0.0769 
    130 H130       32.6808    0.0343   -8.7400 H         1 UNK         0.2981 
    131 H131       35.1200   -1.3813   -9.4271 H         1 UNK         0.0541 
    132 H132       36.3017    2.4047   -8.9155 H         1 UNK         0.3459 
    133 H133       34.6175    2.0399   -9.1680 H         1 UNK         0.3459 
    134 H134       35.3800   -1.9094   -7.1441 H         1 UNK         0.0612 
    135 H135       33.7016   -2.1236   -7.5486 H         1 UNK         0.0612 
    136 H136       34.3447   -1.1392   -3.7857 H         1 UNK         0.0624 
    137 H137       34.4349   -2.4407   -4.9375 H         1 UNK         0.0624 
@<TRIPOS>BOND
     1    1    2 1    
     2    1   72 1    
     3    1   73 1    
     4    1   74 1    
     5    2    3 2    
     6    2    4 am   BACKBONE|DICT|INTERRES
     7    4    5 1    
     8    4   75 1    
     9    5    6 1    
    10    5   35 1    
    11    5   76 1    
    12    6    7 1    
    13    6   77 1    
    14    6   78 1    
    15    7    8 1    
    16    8    9 1    
    17    8   79 1    
    18    8   80 1    
    19    9   10 ar   
    20    9   14 ar   
    21   10   11 ar   
    22   10   81 1    
    23   11   12 ar   
    24   11   71 1    
    25   12   13 ar   
    26   12   82 1    
    27   13   14 ar   
    28   13   15 1    
    29   14   83 1    
    30   15   16 1    
    31   15   84 1    
    32   15   85 1    
    33   16   17 1    
    34   17   18 1    
    35   17   86 1    
    36   17   87 1    
    37   18   19 1    
    38   18   37 1    
    39   18   88 1    
    40   19   20 am   BACKBONE|DICT|INTERRES
    41   19   89 1    
    42   20   21 2    
    43   20   22 1    
    44   22   23 1    
    45   22   24 1    
    46   22   90 1    
    47   23   91 1    
    48   23   92 1    
    49   23   93 1    
    50   24   25 am   BACKBONE|DICT|INTERRES
    51   24   94 1    
    52   25   26 2    
    53   25   27 1    
    54   27   28 1    
    55   27   29 1    
    56   27   95 1    
    57   28   96 1    
    58   28   97 1    
    59   28   98 1    
    60   29   30 am   BACKBONE|DICT|INTERRES
    61   29   99 1    
    62   30   31 2    
    63   30   32 1    
    64   32   33 1    
    65   32   34 1    
    66   32  100 1    
    67   33  101 1    
    68   33  102 1    
    69   33  103 1    
    70   34   35 am   BACKBONE|DICT|INTERRES
    71   34  104 1    
    72   35   36 2    
    73   37   38 2    
    74   37   39 am   BACKBONE|DICT|INTERRES
    75   39   40 1    
    76   39  105 1    
    77   40   41 1    
    78   40   42 1    
    79   40  106 1    
    80   41  107 1    
    81   41  108 1    
    82   41  109 1    
    83   42   43 2    
    84   42   44 am   BACKBONE|DICT|INTERRES
    85   44   45 1    
    86   44  110 1    
    87   45   46 1    
    88   45   47 1    
    89   45  111 1    
    90   46  112 1    
    91   46  113 1    
    92   46  114 1    
    93   47   48 2    
    94   47   49 am   BACKBONE|DICT|INTERRES
    95   49   50 1    
    96   49  115 1    
    97   50   51 1    
    98   50   52 1    
    99   50  116 1    
   100   51  117 1    
   101   51  118 1    
   102   51  119 1    
   103   52   53 2    
   104   52   54 am   BACKBONE|DICT|INTERRES
   105   54   55 1    
   106   54  120 1    
   107   55   56 1    
   108   55   57 1    
   109   55  121 1    
   110   56  122 1    
   111   56  123 1    
   112   56  124 1    
   113   57   58 2    
   114   57   59 am   BACKBONE|DICT|INTERRES
   115   59   60 1    
   116   59  125 1    
   117   60   61 1    
   118   60   62 1    
   119   60  126 1    
   120   61  127 1    
   121   61  128 1    
   122   61  129 1    
   123   62   63 2    
   124   62   64 am   BACKBONE|DICT|INTERRES
   125   64   65 1    
   126   64  130 1    
   127   65   66 1    
   128   65   69 1    
   129   65  131 1    
   130   66   67 am   BACKBONE|DICT|INTERRES
   131   66   68 2    
   132   67  132 1    
   133   67  133 1    
   134   69   70 1    
   135   69  134 1    
   136   69  135 1    
   137   70   71 1    
   138   71  136 1    
   139   71  137 1    
@<TRIPOS>SUBSTRUCTURE
     1 UNK         1 GROUP             0       ****    0 ROOT    
