@<TRIPOS>MOLECULE
3R137
137   139    1
SMALL
USER_CHARGES


@<TRIPOS>ATOM
      1 CA         26.4906   -4.0716   -8.6623 C.3       0 UNK        -0.2020 
      2 C          26.2169   -4.7238   -7.3167 C.2       0 UNK         0.4855 
      3 O          25.1123   -5.2165   -7.0869 O.2       0 UNK        -0.5197 
      4 N          27.2179   -4.7359   -6.4312 N.am      1 UNK        -0.4892 
      5 CA         27.1229   -5.2542   -5.0651 C.3       1 UNK         0.0835 
      6 C6         28.4854   -5.8149   -4.5799 C.3       12 UNK        -0.0855 
      7 S7         29.8758   -4.6315   -4.6941 S.3       12 UNK        -0.2931 
      8 C8         30.2701   -4.3074   -2.9451 C.3       12 UNK         0.0378 
      9 C9         30.2866   -2.8156   -2.6527 C.ar      12 UNK        -0.0802 
     10 C10        31.3480   -2.0258   -3.1038 C.ar      12 UNK        -0.0944 
     11 C11        31.3758   -0.6550   -2.8349 C.ar      12 UNK        -0.0787 
     12 C12        30.3370   -0.0753   -2.1012 C.ar      12 UNK        -0.0862 
     13 C13        29.2692   -0.8547   -1.6441 C.ar      12 UNK        -0.0733 
     14 C14        29.2508   -2.2249   -1.9224 C.ar      12 UNK        -0.0832 
     15 C15        28.1420   -0.2181   -0.8410 C.3       12 UNK         0.0240 
     16 S16        26.6279    0.0116   -1.8292 S.3       12 UNK        -0.2522 
     17 C17        27.2020    1.1333   -3.1511 C.3       12 UNK        -0.0967 
     18 CA         27.4069    0.3728   -4.4943 C.3       5 UNK         0.0660 
     19 N          26.1597   -0.2284   -4.9806 N.am      5 UNK        -0.4015 
     20 C          25.1123    0.4129   -5.5223 C.2       4 UNK         0.4946 
     21 O          25.1016    1.6097   -5.8145 O.2       4 UNK        -0.5353 
     22 CA         23.8279   -0.4128   -5.7088 C.3       4 UNK         0.0277 
     23 CB         23.9941   -1.5030   -6.7784 C.3       4 UNK        -0.1981 
     24 N          23.4100   -1.0193   -4.4449 N.am      4 UNK        -0.4209 
     25 C          22.8924   -0.3497   -3.4060 C.2       3 UNK         0.4942 
     26 O          22.5895    0.8432   -3.4467 O.2       3 UNK        -0.5208 
     27 CA         22.6954   -1.1178   -2.0848 C.3       3 UNK         0.0250 
     28 CB         21.3157   -1.8037   -2.0289 C.3       3 UNK        -0.1990 
     29 N          23.7922   -2.0441   -1.7634 N.am      3 UNK        -0.4232 
     30 C          24.1314   -3.1837   -2.3802 C.2       2 UNK         0.4993 
     31 O          23.4835   -3.6912   -3.2988 O.2       2 UNK        -0.5286 
     32 CA         25.4334   -3.8461   -1.8991 C.3       2 UNK         0.0209 
     33 CB         25.1720   -4.7239   -0.6646 C.3       2 UNK        -0.1931 
     34 N          26.0706   -4.6607   -2.9381 N.am      2 UNK        -0.4546 
     35 C          26.5392   -4.1950   -4.1052 C.2       1 UNK         0.5154 
     36 O          26.5303   -2.9996   -4.4185 O.2       1 UNK        -0.5181 
     37 C          28.1496    1.1768   -5.5887 C.2       5 UNK         0.5014 
     38 O          28.1487    0.7551   -6.7513 O.2       5 UNK        -0.5248 
     39 N          28.7921    2.2926   -5.2051 N.am      6 UNK        -0.4434 
     40 CA         29.6764    3.1473   -6.0093 C.3       6 UNK         0.0363 
     41 CB         30.4842    4.0520   -5.0591 C.3       6 UNK        -0.1936 
     42 C          28.9568    3.9489   -7.1130 C.2       6 UNK         0.5081 
     43 O          29.0952    5.1700   -7.2026 O.2       6 UNK        -0.5248 
     44 N          28.2130    3.2250   -7.9433 N.am      7 UNK        -0.4718 
     45 CA         27.5419    3.6714   -9.1566 C.3       7 UNK         0.0273 
     46 CB         26.1277    4.1818   -8.8308 C.3       7 UNK        -0.1935 
     47 C          27.5063    2.5141  -10.1614 C.2       7 UNK         0.5018 
     48 O          27.7510    2.7400  -11.3469 O.2       7 UNK        -0.5186 
     49 N          27.2310    1.2977   -9.6669 N.am      8 UNK        -0.4240 
     50 CA         27.2489    0.0618  -10.4481 C.3       8 UNK         0.0235 
     51 CB         26.0319   -0.7907  -10.0641 C.3       8 UNK        -0.2000 
     52 C          28.5442   -0.7348  -10.2272 C.2       8 UNK         0.4941 
     53 O          29.0491   -1.3253  -11.1831 O.2       8 UNK        -0.5273 
     54 N          29.0551   -0.7580   -8.9873 N.am      9 UNK        -0.4262 
     55 CA         30.2970   -1.4381   -8.6240 C.3       9 UNK         0.0264 
     56 CB         30.2595   -1.7947   -7.1290 C.3       9 UNK        -0.1955 
     57 C          31.5103   -0.5511   -8.9400 C.2       9 UNK         0.5031 
     58 O          31.4382    0.6732   -8.7962 O.2       9 UNK        -0.5390 
     59 N          32.6206   -1.1880   -9.3310 N.am      10 UNK        -0.4204 
     60 CA         33.8949   -0.5425   -9.6563 C.3       10 UNK         0.0237 
     61 CB         34.6810   -1.4490  -10.6230 C.3       10 UNK        -0.1985 
     62 C          34.6921   -0.1984   -8.3835 C.2       10 UNK         0.4970 
     63 O          35.7704   -0.7517   -8.1595 O.2       10 UNK        -0.4914 
     64 N          34.1301    0.6937   -7.5614 N.am      11 UNK        -0.4285 
     65 CA         34.7049    1.1507   -6.2848 C.3       11 UNK         0.1007 
     66 C          35.9515    2.0737   -6.4207 C.2       11 UNK         0.5703 
     67 N          36.2601    2.6113   -7.5953 N.am      11 UNK        -0.7361 
     68 O          36.6562    2.3001   -5.4399 O.2       11 UNK        -0.4986 
     69 C69        33.6324    1.8083   -5.3788 C.3       12 UNK        -0.0947 
     70 S70        32.2141    0.7100   -5.0593 S.3       12 UNK        -0.2240 
     71 C71        32.5231    0.1997   -3.3463 C.3       12 UNK         0.0194 
     72 H72        27.3238   -3.3707   -8.6102 H         1 UNK         0.0906 
     73 H73        26.7253   -4.8311   -9.4075 H         1 UNK         0.0906 
     74 H74        25.6080   -3.5290   -8.9984 H         1 UNK         0.0906 
     75 H75        28.0968   -4.2884   -6.6488 H         1 UNK         0.3140 
     76 H76        26.4169   -6.0881   -5.0704 H         1 UNK         0.1085 
     77 H77        28.4027   -6.2187   -3.5699 H         1 UNK         0.0836 
     78 H78        28.7495   -6.6735   -5.1994 H         1 UNK         0.0836 
     79 H79        29.5630   -4.8099   -2.2843 H         1 UNK         0.0731 
     80 H80        31.2486   -4.7336   -2.7192 H         1 UNK         0.0731 
     81 H81        32.1467   -2.4774   -3.6766 H         1 UNK         0.1312 
     82 H82        30.3599    0.9851   -1.8906 H         1 UNK         0.1406 
     83 H83        28.4295   -2.8315   -1.5700 H         1 UNK         0.1631 
     84 H84        28.4536    0.7445   -0.4325 H         1 UNK         0.0717 
     85 H85        27.9086   -0.8493    0.0176 H         1 UNK         0.0717 
     86 H86        26.4674    1.9318   -3.2711 H         1 UNK         0.0934 
     87 H87        28.1175    1.6116   -2.8039 H         1 UNK         0.0934 
     88 H88        28.0676   -0.4721   -4.2927 H         1 UNK         0.0739 
     89 H89        26.0934   -1.2302   -4.8109 H         1 UNK         0.3093 
     90 H90        23.0354    0.2630   -6.0381 H         1 UNK         0.0818 
     91 H91        23.0936   -2.1107   -6.8695 H         1 UNK         0.0819 
     92 H92        24.1754   -1.0550   -7.7542 H         1 UNK         0.0819 
     93 H93        24.8252   -2.1726   -6.5563 H         1 UNK         0.0819 
     94 H94        23.5939   -2.0100   -4.3153 H         1 UNK         0.3041 
     95 H95        22.7141   -0.3691   -1.2909 H         1 UNK         0.0784 
     96 H96        20.5158   -1.0698   -2.1354 H         1 UNK         0.0793 
     97 H97        21.1865   -2.5357   -2.8264 H         1 UNK         0.0793 
     98 H98        21.1639   -2.3129   -1.0772 H         1 UNK         0.0793 
     99 H99        24.4147   -1.7069   -1.0413 H         1 UNK         0.3024 
    100 H100       26.1316   -3.0528   -1.6275 H         1 UNK         0.1171 
    101 H101       24.7286   -4.1428    0.1452 H         1 UNK         0.0786 
    102 H102       26.0965   -5.1556   -0.2804 H         1 UNK         0.0786 
    103 H103       24.4866   -5.5420   -0.8903 H         1 UNK         0.0786 
    104 H104       26.0860   -5.6563   -2.7725 H         1 UNK         0.2977 
    105 H105       28.6914    2.5773   -4.2433 H         1 UNK         0.3127 
    106 H106       30.3828    2.4938   -6.5253 H         1 UNK         0.0770 
    107 H107       29.8401    4.7477   -4.5203 H         1 UNK         0.0814 
    108 H108       31.2151    4.6441   -5.6114 H         1 UNK         0.0814 
    109 H109       31.0376    3.4675   -4.3241 H         1 UNK         0.0814 
    110 H110       28.1855    2.2279   -7.7423 H         1 UNK         0.2983 
    111 H111       28.1185    4.4833   -9.6059 H         1 UNK         0.0947 
    112 H112       25.6042    4.4874   -9.7376 H         1 UNK         0.0806 
    113 H113       26.1637    5.0473   -8.1692 H         1 UNK         0.0806 
    114 H114       25.5235    3.4152   -8.3435 H         1 UNK         0.0806 
    115 H115       27.0308    1.2035   -8.6802 H         1 UNK         0.3000 
    116 H116       27.1750    0.2900  -11.5137 H         1 UNK         0.0850 
    117 H117       25.9853   -1.6961  -10.6706 H         1 UNK         0.0810 
    118 H118       26.0784   -1.0943   -9.0187 H         1 UNK         0.0810 
    119 H119       25.0993   -0.2479  -10.2190 H         1 UNK         0.0810 
    120 H120       28.6288   -0.2041   -8.2485 H         1 UNK         0.3040 
    121 H121       30.3725   -2.3662   -9.1951 H         1 UNK         0.0766 
    122 H122       30.2316   -0.9041   -6.5024 H         1 UNK         0.0812 
    123 H123       31.1412   -2.3661   -6.8363 H         1 UNK         0.0812 
    124 H124       29.3849   -2.3962   -6.8831 H         1 UNK         0.0812 
    125 H125       32.6074   -2.1969   -9.3801 H         1 UNK         0.3205 
    126 H126       33.6935    0.3967  -10.1766 H         1 UNK         0.0754 
    127 H127       35.6278   -0.9880  -10.9080 H         1 UNK         0.0769 
    128 H128       34.1216   -1.6278  -11.5416 H         1 UNK         0.0769 
    129 H129       34.9108   -2.4173  -10.1763 H         1 UNK         0.0769 
    130 H130       33.2118    1.0518   -7.8013 H         1 UNK         0.2981 
    131 H131       35.0598    0.2596   -5.7634 H         1 UNK         0.0541 
    132 H132       35.6879    2.4344   -8.4047 H         1 UNK         0.3459 
    133 H133       37.0725    3.2032   -7.6692 H         1 UNK         0.3459 
    134 H134       33.2514    2.7183   -5.8455 H         1 UNK         0.0612 
    135 H135       34.0650    2.1157   -4.4249 H         1 UNK         0.0612 
    136 H136       33.4607   -0.3560   -3.2960 H         1 UNK         0.0624 
    137 H137       32.6462    1.0833   -2.7182 H         1 UNK         0.0624 
@<TRIPOS>BOND
     1    1    2 1    
     2    1   72 1    
     3    1   73 1    
     4    1   74 1    
     5    2    3 2    
     6    2    4 am   BACKBONE|DICT|INTERRES
     7    4    5 1    
     8    4   75 1    
     9    5    6 1    
    10    5   35 1    
    11    5   76 1    
    12    6    7 1    
    13    6   77 1    
    14    6   78 1    
    15    7    8 1    
    16    8    9 1    
    17    8   79 1    
    18    8   80 1    
    19    9   10 ar   
    20    9   14 ar   
    21   10   11 ar   
    22   10   81 1    
    23   11   12 ar   
    24   11   71 1    
    25   12   13 ar   
    26   12   82 1    
    27   13   14 ar   
    28   13   15 1    
    29   14   83 1    
    30   15   16 1    
    31   15   84 1    
    32   15   85 1    
    33   16   17 1    
    34   17   18 1    
    35   17   86 1    
    36   17   87 1    
    37   18   19 1    
    38   18   37 1    
    39   18   88 1    
    40   19   20 am   BACKBONE|DICT|INTERRES
    41   19   89 1    
    42   20   21 2    
    43   20   22 1    
    44   22   23 1    
    45   22   24 1    
    46   22   90 1    
    47   23   91 1    
    48   23   92 1    
    49   23   93 1    
    50   24   25 am   BACKBONE|DICT|INTERRES
    51   24   94 1    
    52   25   26 2    
    53   25   27 1    
    54   27   28 1    
    55   27   29 1    
    56   27   95 1    
    57   28   96 1    
    58   28   97 1    
    59   28   98 1    
    60   29   30 am   BACKBONE|DICT|INTERRES
    61   29   99 1    
    62   30   31 2    
    63   30   32 1    
    64   32   33 1    
    65   32   34 1    
    66   32  100 1    
    67   33  101 1    
    68   33  102 1    
    69   33  103 1    
    70   34   35 am   BACKBONE|DICT|INTERRES
    71   34  104 1    
    72   35   36 2    
    73   37   38 2    
    74   37   39 am   BACKBONE|DICT|INTERRES
    75   39   40 1    
    76   39  105 1    
    77   40   41 1    
    78   40   42 1    
    79   40  106 1    
    80   41  107 1    
    81   41  108 1    
    82   41  109 1    
    83   42   43 2    
    84   42   44 am   BACKBONE|DICT|INTERRES
    85   44   45 1    
    86   44  110 1    
    87   45   46 1    
    88   45   47 1    
    89   45  111 1    
    90   46  112 1    
    91   46  113 1    
    92   46  114 1    
    93   47   48 2    
    94   47   49 am   BACKBONE|DICT|INTERRES
    95   49   50 1    
    96   49  115 1    
    97   50   51 1    
    98   50   52 1    
    99   50  116 1    
   100   51  117 1    
   101   51  118 1    
   102   51  119 1    
   103   52   53 2    
   104   52   54 am   BACKBONE|DICT|INTERRES
   105   54   55 1    
   106   54  120 1    
   107   55   56 1    
   108   55   57 1    
   109   55  121 1    
   110   56  122 1    
   111   56  123 1    
   112   56  124 1    
   113   57   58 2    
   114   57   59 am   BACKBONE|DICT|INTERRES
   115   59   60 1    
   116   59  125 1    
   117   60   61 1    
   118   60   62 1    
   119   60  126 1    
   120   61  127 1    
   121   61  128 1    
   122   61  129 1    
   123   62   63 2    
   124   62   64 am   BACKBONE|DICT|INTERRES
   125   64   65 1    
   126   64  130 1    
   127   65   66 1    
   128   65   69 1    
   129   65  131 1    
   130   66   67 am   BACKBONE|DICT|INTERRES
   131   66   68 2    
   132   67  132 1    
   133   67  133 1    
   134   69   70 1    
   135   69  134 1    
   136   69  135 1    
   137   70   71 1    
   138   71  136 1    
   139   71  137 1    
@<TRIPOS>SUBSTRUCTURE
     1 UNK         1 GROUP             0       ****    0 ROOT    
