@<TRIPOS>MOLECULE
3R137
137   139    1
SMALL
USER_CHARGES


@<TRIPOS>ATOM
      1 CA         30.4538   -2.0790    3.4260 C.3       0 UNK        -0.2020 
      2 C          30.0377   -1.8256    1.9847 C.2       0 UNK         0.4855 
      3 O          30.3242   -0.7573    1.4435 O.2       0 UNK        -0.5197 
      4 N          29.3724   -2.8024    1.3562 N.am      1 UNK        -0.4892 
      5 CA         28.8542   -2.7186   -0.0129 C.3       1 UNK         0.0835 
      6 C6         28.4444   -4.1094   -0.5587 C.3       12 UNK        -0.0855 
      7 S7         29.8829   -5.2252   -0.6952 S.3       12 UNK        -0.2931 
      8 C8         29.8362   -5.7107   -2.4563 C.3       12 UNK         0.0378 
      9 C9         29.9248   -4.5518   -3.4495 C.ar      12 UNK        -0.0802 
     10 C10        30.7197   -3.4251   -3.2023 C.ar      12 UNK        -0.0944 
     11 C11        30.7919   -2.3859   -4.1347 C.ar      12 UNK        -0.0787 
     12 C12        30.0729   -2.4813   -5.3288 C.ar      12 UNK        -0.0862 
     13 C13        29.2952   -3.6095   -5.6025 C.ar      12 UNK        -0.0733 
     14 C14        29.2242   -4.6380   -4.6578 C.ar      12 UNK        -0.0832 
     15 C15        28.5729   -3.7319   -6.9374 C.3       12 UNK         0.0240 
     16 S16        26.7716   -3.8975   -6.7324 S.3       12 UNK        -0.2522 
     17 C17        26.1932   -3.5713   -8.4368 C.3       12 UNK        -0.0967 
     18 CA         25.5726   -2.1624   -8.6186 C.3       5 UNK         0.0660 
     19 N          24.4603   -1.9382   -7.6923 N.am      5 UNK        -0.4015 
     20 C          23.6476   -0.8735   -7.6852 C.2       4 UNK         0.4946 
     21 O          23.6787    0.0150   -8.5373 O.2       4 UNK        -0.5353 
     22 CA         22.6614   -0.7520   -6.5059 C.3       4 UNK         0.0277 
     23 CB         21.2704   -1.2574   -6.9219 C.3       4 UNK        -0.1981 
     24 N          23.0702   -1.4264   -5.2622 N.am      4 UNK        -0.4209 
     25 C          24.2261   -1.2307   -4.6108 C.2       3 UNK         0.4942 
     26 O          25.1408   -0.5270   -5.0442 O.2       3 UNK        -0.5208 
     27 CA         24.4049   -1.9787   -3.2787 C.3       3 UNK         0.0250 
     28 CB         24.7194   -3.4651   -3.5161 C.3       3 UNK        -0.1990 
     29 N          25.4976   -1.3931   -2.5035 N.am      3 UNK        -0.4232 
     30 C          25.4219   -0.2532   -1.8044 C.2       2 UNK         0.4993 
     31 O          24.3711    0.3639   -1.6170 O.2       2 UNK        -0.5286 
     32 CA         26.7504    0.2953   -1.2426 C.3       2 UNK         0.0209 
     33 CB         26.5510    1.2078   -0.0124 C.3       2 UNK        -0.1931 
     34 N          27.7546   -0.7468   -0.9727 N.am      2 UNK        -0.4546 
     35 C          27.6667   -1.7388   -0.0729 C.2       1 UNK         0.5154 
     36 O          26.7024   -1.9160    0.6755 O.2       1 UNK        -0.5181 
     37 C          26.6570   -1.0644   -8.5524 C.2       5 UNK         0.5014 
     38 O          27.2788   -0.7811   -9.5779 O.2       5 UNK        -0.5248 
     39 N          26.8591   -0.4533   -7.3725 N.am      6 UNK        -0.4434 
     40 CA         27.8847    0.5622   -7.1112 C.3       6 UNK         0.0363 
     41 CB         28.0078    0.7954   -5.5965 C.3       6 UNK        -0.1936 
     42 C          27.6613    1.8913   -7.8544 C.2       6 UNK         0.5081 
     43 O          28.5799    2.7071   -7.9082 O.2       6 UNK        -0.5248 
     44 N          26.4712    2.0843   -8.4412 N.am      7 UNK        -0.4718 
     45 CA         26.1741    3.1807   -9.3651 C.3       7 UNK         0.0273 
     46 CB         24.6558    3.2457   -9.5948 C.3       7 UNK        -0.1935 
     47 C          26.9185    3.0545  -10.7098 C.2       7 UNK         0.5018 
     48 O          27.1052    4.0695  -11.3821 O.2       7 UNK        -0.5186 
     49 N          27.3239    1.8295  -11.0752 N.am      8 UNK        -0.4240 
     50 CA         28.0974    1.5219  -12.2772 C.3       8 UNK         0.0235 
     51 CB         27.3247    0.5090  -13.1402 C.3       8 UNK        -0.2000 
     52 C          29.4802    0.9812  -11.8928 C.2       8 UNK         0.4941 
     53 O          30.4928    1.5574  -12.2919 O.2       8 UNK        -0.5273 
     54 N          29.5077   -0.1004  -11.1048 N.am      9 UNK        -0.4262 
     55 CA         30.7158   -0.7738  -10.6312 C.3       9 UNK         0.0264 
     56 CB         30.4329   -2.2856  -10.5408 C.3       9 UNK        -0.1955 
     57 C          31.1578   -0.1737   -9.2875 C.2       9 UNK         0.5031 
     58 O          31.1538   -0.8682   -8.2703 O.2       9 UNK        -0.5390 
     59 N          31.4864    1.1237   -9.3000 N.am      10 UNK        -0.4204 
     60 CA         31.8982    1.8922   -8.1250 C.3       10 UNK         0.0237 
     61 CB         31.9763    3.3823   -8.4956 C.3       10 UNK        -0.1985 
     62 C          33.2416    1.4044   -7.5589 C.2       10 UNK         0.4970 
     63 O          34.2029    1.2566   -8.3178 O.2       10 UNK        -0.4914 
     64 N          33.2826    1.1903   -6.2402 N.am      11 UNK        -0.4285 
     65 CA         34.4958    0.8383   -5.4906 C.3       11 UNK         0.1007 
     66 C          35.4097    2.0729   -5.2639 C.2       11 UNK         0.5703 
     67 N          36.7165    1.8674   -5.1711 N.am      11 UNK        -0.7361 
     68 O          34.9460    3.2052   -5.1358 O.2       11 UNK        -0.4986 
     69 C69        34.1502    0.1448   -4.1472 C.3       12 UNK        -0.0947 
     70 S70        33.3754   -1.4858   -4.4035 S.3       12 UNK        -0.2240 
     71 C71        31.6671   -1.1718   -3.8681 C.3       12 UNK         0.0194 
     72 H72        31.5369   -2.0071    3.5219 H         1 UNK         0.0906 
     73 H73        30.0033   -1.3352    4.0825 H         1 UNK         0.0906 
     74 H74        30.1480   -3.0663    3.7718 H         1 UNK         0.0906 
     75 H75        29.1575   -3.6576    1.8489 H         1 UNK         0.3140 
     76 H76        29.6543   -2.3274   -0.6451 H         1 UNK         0.1085 
     77 H77        27.7020   -4.5774    0.0908 H         1 UNK         0.0836 
     78 H78        27.9680   -4.0137   -1.5364 H         1 UNK         0.0836 
     79 H79        28.9216   -6.2821   -2.6238 H         1 UNK         0.0731 
     80 H80        30.6646   -6.3934   -2.6493 H         1 UNK         0.0731 
     81 H81        31.2946   -3.3583   -2.2891 H         1 UNK         0.1312 
     82 H82        30.1424   -1.6855   -6.0574 H         1 UNK         0.1406 
     83 H83        28.6254   -5.5129   -4.8735 H         1 UNK         0.1631 
     84 H84        28.9554   -4.5990   -7.4773 H         1 UNK         0.0717 
     85 H85        28.7868   -2.8614   -7.5590 H         1 UNK         0.0717 
     86 H86        27.0066   -3.7326   -9.1476 H         1 UNK         0.0934 
     87 H87        25.4464   -4.3282   -8.6817 H         1 UNK         0.0934 
     88 H88        25.1528   -2.1157   -9.6258 H         1 UNK         0.0739 
     89 H89        24.3755   -2.6072   -6.9414 H         1 UNK         0.3093 
     90 H90        22.5810    0.3125   -6.2761 H         1 UNK         0.0818 
     91 H91        20.5275   -1.0620   -6.1482 H         1 UNK         0.0819 
     92 H92        20.9273   -0.7566   -7.8287 H         1 UNK         0.0819 
     93 H93        21.2737   -2.3293   -7.1236 H         1 UNK         0.0819 
     94 H94        22.3834   -2.0371   -4.8425 H         1 UNK         0.3041 
     95 H95        23.4774   -1.8973   -2.7077 H         1 UNK         0.0784 
     96 H96        23.9483   -3.9467   -4.1186 H         1 UNK         0.0793 
     97 H97        25.6702   -3.5986   -4.0322 H         1 UNK         0.0793 
     98 H98        24.7767   -4.0096   -2.5733 H         1 UNK         0.0793 
     99 H99        26.4099   -1.7998   -2.6415 H         1 UNK         0.3024 
    100 H100       27.1647    0.9150   -2.0399 H         1 UNK         0.1171 
    101 H101       25.9346    2.0723   -0.2620 H         1 UNK         0.0786 
    102 H102       27.5031    1.5875    0.3585 H         1 UNK         0.0786 
    103 H103       26.0566    0.6843    0.8063 H         1 UNK         0.0786 
    104 H104       28.5952   -0.6863   -1.5311 H         1 UNK         0.2977 
    105 H105       26.2622   -0.6915   -6.5829 H         1 UNK         0.3127 
    106 H106       28.8337    0.1578   -7.4638 H         1 UNK         0.0770 
    107 H107       27.1113    1.2634   -5.1885 H         1 UNK         0.0814 
    108 H108       28.8488    1.4523   -5.3710 H         1 UNK         0.0814 
    109 H109       28.1719   -0.1392   -5.0600 H         1 UNK         0.0814 
    110 H110       25.7605    1.3717   -8.3354 H         1 UNK         0.2983 
    111 H111       26.4938    4.1159   -8.8999 H         1 UNK         0.0947 
    112 H112       24.3951    4.0777  -10.2504 H         1 UNK         0.0806 
    113 H113       24.1177    3.3908   -8.6579 H         1 UNK         0.0806 
    114 H114       24.2789    2.3334  -10.0594 H         1 UNK         0.0806 
    115 H115       27.1511    1.0565  -10.4411 H         1 UNK         0.3000 
    116 H116       28.2543    2.4222  -12.8753 H         1 UNK         0.0850 
    117 H117       27.8985    0.2316  -14.0256 H         1 UNK         0.0810 
    118 H118       26.3799    0.9290  -13.4858 H         1 UNK         0.0810 
    119 H119       27.0995   -0.4082  -12.5943 H         1 UNK         0.0810 
    120 H120       28.6320   -0.4551  -10.7232 H         1 UNK         0.3040 
    121 H121       31.5302   -0.6274  -11.3441 H         1 UNK         0.0766 
    122 H122       31.3098   -2.8275  -10.1841 H         1 UNK         0.0812 
    123 H123       30.1712   -2.6977  -11.5153 H         1 UNK         0.0812 
    124 H124       29.6127   -2.5023   -9.8558 H         1 UNK         0.0812 
    125 H125       31.4592    1.6123  -10.1858 H         1 UNK         0.3205 
    126 H126       31.1257    1.7684   -7.3630 H         1 UNK         0.0754 
    127 H127       32.7150    3.5667   -9.2768 H         1 UNK         0.0769 
    128 H128       32.2577    3.9847   -7.6308 H         1 UNK         0.0769 
    129 H129       31.0136    3.7538   -8.8483 H         1 UNK         0.0769 
    130 H130       32.4601    1.3711   -5.6865 H         1 UNK         0.2981 
    131 H131       35.0631    0.1268   -6.0948 H         1 UNK         0.0541 
    132 H132       37.1072    0.9423   -5.2624 H         1 UNK         0.3459 
    133 H133       37.3257    2.6544   -5.0103 H         1 UNK         0.3459 
    134 H134       33.5053    0.7775   -3.5345 H         1 UNK         0.0612 
    135 H135       35.0549   -0.0240   -3.5601 H         1 UNK         0.0612 
    136 H136       31.6580   -0.9263   -2.8050 H         1 UNK         0.0624 
    137 H137       31.2731   -0.3016   -4.3953 H         1 UNK         0.0624 
@<TRIPOS>BOND
     1    1    2 1    
     2    1   72 1    
     3    1   73 1    
     4    1   74 1    
     5    2    3 2    
     6    2    4 am   BACKBONE|DICT|INTERRES
     7    4    5 1    
     8    4   75 1    
     9    5    6 1    
    10    5   35 1    
    11    5   76 1    
    12    6    7 1    
    13    6   77 1    
    14    6   78 1    
    15    7    8 1    
    16    8    9 1    
    17    8   79 1    
    18    8   80 1    
    19    9   10 ar   
    20    9   14 ar   
    21   10   11 ar   
    22   10   81 1    
    23   11   12 ar   
    24   11   71 1    
    25   12   13 ar   
    26   12   82 1    
    27   13   14 ar   
    28   13   15 1    
    29   14   83 1    
    30   15   16 1    
    31   15   84 1    
    32   15   85 1    
    33   16   17 1    
    34   17   18 1    
    35   17   86 1    
    36   17   87 1    
    37   18   19 1    
    38   18   37 1    
    39   18   88 1    
    40   19   20 am   BACKBONE|DICT|INTERRES
    41   19   89 1    
    42   20   21 2    
    43   20   22 1    
    44   22   23 1    
    45   22   24 1    
    46   22   90 1    
    47   23   91 1    
    48   23   92 1    
    49   23   93 1    
    50   24   25 am   BACKBONE|DICT|INTERRES
    51   24   94 1    
    52   25   26 2    
    53   25   27 1    
    54   27   28 1    
    55   27   29 1    
    56   27   95 1    
    57   28   96 1    
    58   28   97 1    
    59   28   98 1    
    60   29   30 am   BACKBONE|DICT|INTERRES
    61   29   99 1    
    62   30   31 2    
    63   30   32 1    
    64   32   33 1    
    65   32   34 1    
    66   32  100 1    
    67   33  101 1    
    68   33  102 1    
    69   33  103 1    
    70   34   35 am   BACKBONE|DICT|INTERRES
    71   34  104 1    
    72   35   36 2    
    73   37   38 2    
    74   37   39 am   BACKBONE|DICT|INTERRES
    75   39   40 1    
    76   39  105 1    
    77   40   41 1    
    78   40   42 1    
    79   40  106 1    
    80   41  107 1    
    81   41  108 1    
    82   41  109 1    
    83   42   43 2    
    84   42   44 am   BACKBONE|DICT|INTERRES
    85   44   45 1    
    86   44  110 1    
    87   45   46 1    
    88   45   47 1    
    89   45  111 1    
    90   46  112 1    
    91   46  113 1    
    92   46  114 1    
    93   47   48 2    
    94   47   49 am   BACKBONE|DICT|INTERRES
    95   49   50 1    
    96   49  115 1    
    97   50   51 1    
    98   50   52 1    
    99   50  116 1    
   100   51  117 1    
   101   51  118 1    
   102   51  119 1    
   103   52   53 2    
   104   52   54 am   BACKBONE|DICT|INTERRES
   105   54   55 1    
   106   54  120 1    
   107   55   56 1    
   108   55   57 1    
   109   55  121 1    
   110   56  122 1    
   111   56  123 1    
   112   56  124 1    
   113   57   58 2    
   114   57   59 am   BACKBONE|DICT|INTERRES
   115   59   60 1    
   116   59  125 1    
   117   60   61 1    
   118   60   62 1    
   119   60  126 1    
   120   61  127 1    
   121   61  128 1    
   122   61  129 1    
   123   62   63 2    
   124   62   64 am   BACKBONE|DICT|INTERRES
   125   64   65 1    
   126   64  130 1    
   127   65   66 1    
   128   65   69 1    
   129   65  131 1    
   130   66   67 am   BACKBONE|DICT|INTERRES
   131   66   68 2    
   132   67  132 1    
   133   67  133 1    
   134   69   70 1    
   135   69  134 1    
   136   69  135 1    
   137   70   71 1    
   138   71  136 1    
   139   71  137 1    
@<TRIPOS>SUBSTRUCTURE
     1 UNK         1 GROUP             0       ****    0 ROOT    
