@<TRIPOS>MOLECULE
3R137
137   139    1
SMALL
USER_CHARGES


@<TRIPOS>ATOM
      1 CA         26.0610   -5.8342   -3.4839 C.3       0 UNK        -0.2020 
      2 C          27.5393   -5.4675   -3.5870 C.2       0 UNK         0.4855 
      3 O          28.2157   -5.9484   -4.4930 O.2       0 UNK        -0.5197 
      4 N          28.0887   -4.6377   -2.6906 N.am      1 UNK        -0.4892 
      5 CA         27.4249   -3.9732   -1.5622 C.3       1 UNK         0.0835 
      6 C6         28.4341   -3.4624   -0.4917 C.3       12 UNK        -0.0855 
      7 S7         29.7883   -4.6344   -0.1099 S.3       12 UNK        -0.2931 
      8 C8         31.2929   -3.6330   -0.4024 C.3       12 UNK         0.0378 
      9 C9         31.2762   -2.8983   -1.7389 C.ar      12 UNK        -0.0802 
     10 C10        31.1988   -3.6123   -2.9382 C.ar      12 UNK        -0.0944 
     11 C11        31.1003   -2.9465   -4.1635 C.ar      12 UNK        -0.0787 
     12 C12        31.0983   -1.5457   -4.1754 C.ar      12 UNK        -0.0862 
     13 C13        31.2316   -0.8178   -2.9897 C.ar      12 UNK        -0.0733 
     14 C14        31.3162   -1.4998   -1.7731 C.ar      12 UNK        -0.0832 
     15 C15        31.3040    0.7048   -3.0351 C.3       12 UNK         0.0240 
     16 S16        29.8788    1.5412   -2.2559 S.3       12 UNK        -0.2522 
     17 C17        28.4394    0.6625   -2.9469 C.3       12 UNK        -0.0967 
     18 CA         28.2524    0.8380   -4.4750 C.3       5 UNK         0.0660 
     19 N          27.5447   -0.3040   -5.0459 N.am      5 UNK        -0.4015 
     20 C          27.4201   -0.5756   -6.3504 C.2       4 UNK         0.4946 
     21 O          27.9388    0.0857   -7.2509 O.2       4 UNK        -0.5353 
     22 CA         26.5411   -1.7831   -6.7072 C.3       4 UNK         0.0277 
     23 CB         27.3588   -3.0805   -6.6357 C.3       4 UNK        -0.1981 
     24 N          25.3707   -1.8989   -5.8326 N.am      4 UNK        -0.4209 
     25 C          24.3363   -1.0472   -5.8300 C.2       3 UNK         0.4942 
     26 O          24.2494   -0.0706   -6.5736 O.2       3 UNK        -0.5208 
     27 CA         23.2267   -1.3144   -4.7986 C.3       3 UNK         0.0250 
     28 CB         22.3405   -2.4905   -5.2405 C.3       3 UNK        -0.1990 
     29 N          23.7376   -1.5601   -3.4462 N.am      3 UNK        -0.4232 
     30 C          24.4145   -0.6578   -2.7224 C.2       2 UNK         0.4993 
     31 O          24.7112    0.4651   -3.1265 O.2       2 UNK        -0.5286 
     32 CA         24.8793   -1.0868   -1.3215 C.3       2 UNK         0.0209 
     33 CB         23.6962   -1.0990   -0.3393 C.3       2 UNK        -0.1931 
     34 N          25.6023   -2.3645   -1.2380 N.am      2 UNK        -0.4546 
     35 C          26.5750   -2.7871   -2.0590 C.2       1 UNK         0.5154 
     36 O          26.8504   -2.2550   -3.1367 O.2       1 UNK        -0.5181 
     37 C          27.5739    2.1721   -4.8457 C.2       5 UNK         0.5014 
     38 O          28.2593    3.0856   -5.3062 O.2       5 UNK        -0.5248 
     39 N          26.2421    2.2496   -4.6915 N.am      6 UNK        -0.4434 
     40 CA         25.4245    3.4072   -5.0698 C.3       6 UNK         0.0363 
     41 CB         23.9932    3.2323   -4.5382 C.3       6 UNK        -0.1936 
     42 C          25.4047    3.6632   -6.5855 C.2       6 UNK         0.5081 
     43 O          25.4523    4.8210   -7.0018 O.2       6 UNK        -0.5248 
     44 N          25.3591    2.5872   -7.3839 N.am      7 UNK        -0.4718 
     45 CA         25.4551    2.6391   -8.8464 C.3       7 UNK         0.0273 
     46 CB         25.0047    1.2890   -9.4277 C.3       7 UNK        -0.1935 
     47 C          26.8648    2.9881   -9.3595 C.2       7 UNK         0.5018 
     48 O          26.9915    3.3847  -10.5186 O.2       7 UNK        -0.5186 
     49 N          27.8847    2.8106   -8.5048 N.am      8 UNK        -0.4240 
     50 CA         29.3207    2.9163   -8.7813 C.3       8 UNK         0.0235 
     51 CB         29.7214    4.3729   -9.0955 C.3       8 UNK        -0.2000 
     52 C          29.7603    1.9145   -9.8645 C.2       8 UNK         0.4941 
     53 O          30.4548    2.2852  -10.8142 O.2       8 UNK        -0.5273 
     54 N          29.3286    0.6549   -9.7108 N.am      9 UNK        -0.4262 
     55 CA         29.5199   -0.4441  -10.6622 C.3       9 UNK         0.0264 
     56 CB         28.4850   -1.5417  -10.3533 C.3       9 UNK        -0.1955 
     57 C          30.9658   -0.9807  -10.6736 C.2       9 UNK         0.5031 
     58 O          31.1927   -2.1521  -10.3678 O.2       9 UNK        -0.5390 
     59 N          31.9239   -0.1008  -10.9943 N.am      10 UNK        -0.4204 
     60 CA         33.3836   -0.2802  -11.0476 C.3       10 UNK         0.0237 
     61 CB         33.7912   -1.3855  -12.0417 C.3       10 UNK        -0.1985 
     62 C          34.0488   -0.4899   -9.6745 C.2       10 UNK         0.4970 
     63 O          35.0982    0.1036   -9.4238 O.2       10 UNK        -0.4914 
     64 N          33.4311   -1.2997   -8.8085 N.am      11 UNK        -0.4285 
     65 CA         33.8347   -1.5296   -7.4132 C.3       11 UNK         0.1007 
     66 C          33.6148   -0.3196   -6.4575 C.2       11 UNK         0.5703 
     67 N          32.8341    0.6891   -6.8300 N.am      11 UNK        -0.7361 
     68 O          34.1824   -0.2867   -5.3689 O.2       11 UNK        -0.4986 
     69 C69        33.2255   -2.8440   -6.8557 C.3       12 UNK        -0.0947 
     70 S70        31.4050   -2.9304   -6.9904 S.3       12 UNK        -0.2240 
     71 C71        30.9621   -3.7801   -5.4379 C.3       12 UNK         0.0194 
     72 H72        25.4287   -4.9594   -3.6283 H         1 UNK         0.0906 
     73 H73        25.7966   -6.5601   -4.2527 H         1 UNK         0.0906 
     74 H74        25.8331   -6.2838   -2.5182 H         1 UNK         0.0906 
     75 H75        29.0592   -4.3825   -2.8015 H         1 UNK         0.3140 
     76 H76        26.7654   -4.6965   -1.0796 H         1 UNK         0.1085 
     77 H77        27.9072   -3.2579    0.4422 H         1 UNK         0.0836 
     78 H78        28.8620   -2.5036   -0.7876 H         1 UNK         0.0836 
     79 H79        32.1657   -4.2863   -0.3652 H         1 UNK         0.0731 
     80 H80        31.4042   -2.9279    0.4229 H         1 UNK         0.0731 
     81 H81        31.1864   -4.6939   -2.9121 H         1 UNK         0.1312 
     82 H82        31.0066   -1.0110   -5.1093 H         1 UNK         0.1406 
     83 H83        31.3960   -0.9358   -0.8535 H         1 UNK         0.1631 
     84 H84        31.3994    1.0550   -4.0636 H         1 UNK         0.0717 
     85 H85        32.2147    1.0284   -2.5293 H         1 UNK         0.0717 
     86 H86        28.5754   -0.3906   -2.7008 H         1 UNK         0.0934 
     87 H87        27.5434    0.9659   -2.4018 H         1 UNK         0.0934 
     88 H88        29.2348    0.8405   -4.9490 H         1 UNK         0.0739 
     89 H89        27.1302   -0.9541   -4.3800 H         1 UNK         0.3093 
     90 H90        26.1914   -1.6501   -7.7330 H         1 UNK         0.0818 
     91 H91        27.7094   -3.2729   -5.6217 H         1 UNK         0.0819 
     92 H92        26.7733   -3.9414   -6.9580 H         1 UNK         0.0819 
     93 H93        28.2391   -3.0279   -7.2766 H         1 UNK         0.0819 
     94 H94        25.3951   -2.6272   -5.1338 H         1 UNK         0.3041 
     95 H95        22.6021   -0.4193   -4.7558 H         1 UNK         0.0784 
     96 H96        21.9424   -2.3230   -6.2424 H         1 UNK         0.0793 
     97 H97        22.8919   -3.4314   -5.2621 H         1 UNK         0.0793 
     98 H98        21.4878   -2.6165   -4.5730 H         1 UNK         0.0793 
     99 H99        23.5513   -2.4637   -3.0367 H         1 UNK         0.3024 
    100 H100       25.5784   -0.3182   -0.9848 H         1 UNK         0.1171 
    101 H101       24.0345   -1.2280    0.6890 H         1 UNK         0.0786 
    102 H102       23.1442   -0.1585   -0.3784 H         1 UNK         0.0786 
    103 H103       22.9911   -1.9005   -0.5632 H         1 UNK         0.0786 
    104 H104       25.4455   -2.8885   -0.3887 H         1 UNK         0.2977 
    105 H105       25.7429    1.4715   -4.2612 H         1 UNK         0.3127 
    106 H106       25.8584    4.2885   -4.5928 H         1 UNK         0.0770 
    107 H107       23.5189    2.3388   -4.9468 H         1 UNK         0.0814 
    108 H108       23.3689    4.0862   -4.8044 H         1 UNK         0.0814 
    109 H109       23.9820    3.1490   -3.4514 H         1 UNK         0.0814 
    110 H110       25.2403    1.6681   -6.9673 H         1 UNK         0.2983 
    111 H111       24.7752    3.4137   -9.2079 H         1 UNK         0.0947 
    112 H112       25.0390    1.2991  -10.5180 H         1 UNK         0.0806 
    113 H113       23.9802    1.0540   -9.1384 H         1 UNK         0.0806 
    114 H114       25.6442    0.4732   -9.0883 H         1 UNK         0.0806 
    115 H115       27.6530    2.4513   -7.5871 H         1 UNK         0.3000 
    116 H116       29.8307    2.6221   -7.8625 H         1 UNK         0.0850 
    117 H117       30.8038    4.4667   -9.1909 H         1 UNK         0.0810 
    118 H118       29.4058    5.0490   -8.3009 H         1 UNK         0.0810 
    119 H119       29.2820    4.7239  -10.0297 H         1 UNK         0.0810 
    120 H120       28.7965    0.4347   -8.8692 H         1 UNK         0.3040 
    121 H121       29.3113   -0.0666  -11.6655 H         1 UNK         0.0766 
    122 H122       27.4671   -1.1547  -10.4015 H         1 UNK         0.0812 
    123 H123       28.6369   -1.9628   -9.3594 H         1 UNK         0.0812 
    124 H124       28.5557   -2.3610  -11.0699 H         1 UNK         0.0812 
    125 H125       31.5992    0.8531  -11.1503 H         1 UNK         0.3205 
    126 H126       33.7727    0.6624  -11.4362 H         1 UNK         0.0754 
    127 H127       34.8756   -1.4262  -12.1528 H         1 UNK         0.0769 
    128 H128       33.3708   -1.2035  -13.0307 H         1 UNK         0.0769 
    129 H129       33.4642   -2.3730  -11.7147 H         1 UNK         0.0769 
    130 H130       32.5774   -1.7607   -9.1132 H         1 UNK         0.2981 
    131 H131       34.9161   -1.6780   -7.4291 H         1 UNK         0.0541 
    132 H132       32.3772    0.6709   -7.7257 H         1 UNK         0.3459 
    133 H133       32.7261    1.4806   -6.2175 H         1 UNK         0.3459 
    134 H134       33.6332   -3.6934   -7.4055 H         1 UNK         0.0612 
    135 H135       33.5274   -2.9948   -5.8176 H         1 UNK         0.0612 
    136 H136       31.5674   -4.6844   -5.3581 H         1 UNK         0.0624 
    137 H137       29.9280   -4.1115   -5.5178 H         1 UNK         0.0624 
@<TRIPOS>BOND
     1    1    2 1    
     2    1   72 1    
     3    1   73 1    
     4    1   74 1    
     5    2    3 2    
     6    2    4 am   BACKBONE|DICT|INTERRES
     7    4    5 1    
     8    4   75 1    
     9    5    6 1    
    10    5   35 1    
    11    5   76 1    
    12    6    7 1    
    13    6   77 1    
    14    6   78 1    
    15    7    8 1    
    16    8    9 1    
    17    8   79 1    
    18    8   80 1    
    19    9   10 ar   
    20    9   14 ar   
    21   10   11 ar   
    22   10   81 1    
    23   11   12 ar   
    24   11   71 1    
    25   12   13 ar   
    26   12   82 1    
    27   13   14 ar   
    28   13   15 1    
    29   14   83 1    
    30   15   16 1    
    31   15   84 1    
    32   15   85 1    
    33   16   17 1    
    34   17   18 1    
    35   17   86 1    
    36   17   87 1    
    37   18   19 1    
    38   18   37 1    
    39   18   88 1    
    40   19   20 am   BACKBONE|DICT|INTERRES
    41   19   89 1    
    42   20   21 2    
    43   20   22 1    
    44   22   23 1    
    45   22   24 1    
    46   22   90 1    
    47   23   91 1    
    48   23   92 1    
    49   23   93 1    
    50   24   25 am   BACKBONE|DICT|INTERRES
    51   24   94 1    
    52   25   26 2    
    53   25   27 1    
    54   27   28 1    
    55   27   29 1    
    56   27   95 1    
    57   28   96 1    
    58   28   97 1    
    59   28   98 1    
    60   29   30 am   BACKBONE|DICT|INTERRES
    61   29   99 1    
    62   30   31 2    
    63   30   32 1    
    64   32   33 1    
    65   32   34 1    
    66   32  100 1    
    67   33  101 1    
    68   33  102 1    
    69   33  103 1    
    70   34   35 am   BACKBONE|DICT|INTERRES
    71   34  104 1    
    72   35   36 2    
    73   37   38 2    
    74   37   39 am   BACKBONE|DICT|INTERRES
    75   39   40 1    
    76   39  105 1    
    77   40   41 1    
    78   40   42 1    
    79   40  106 1    
    80   41  107 1    
    81   41  108 1    
    82   41  109 1    
    83   42   43 2    
    84   42   44 am   BACKBONE|DICT|INTERRES
    85   44   45 1    
    86   44  110 1    
    87   45   46 1    
    88   45   47 1    
    89   45  111 1    
    90   46  112 1    
    91   46  113 1    
    92   46  114 1    
    93   47   48 2    
    94   47   49 am   BACKBONE|DICT|INTERRES
    95   49   50 1    
    96   49  115 1    
    97   50   51 1    
    98   50   52 1    
    99   50  116 1    
   100   51  117 1    
   101   51  118 1    
   102   51  119 1    
   103   52   53 2    
   104   52   54 am   BACKBONE|DICT|INTERRES
   105   54   55 1    
   106   54  120 1    
   107   55   56 1    
   108   55   57 1    
   109   55  121 1    
   110   56  122 1    
   111   56  123 1    
   112   56  124 1    
   113   57   58 2    
   114   57   59 am   BACKBONE|DICT|INTERRES
   115   59   60 1    
   116   59  125 1    
   117   60   61 1    
   118   60   62 1    
   119   60  126 1    
   120   61  127 1    
   121   61  128 1    
   122   61  129 1    
   123   62   63 2    
   124   62   64 am   BACKBONE|DICT|INTERRES
   125   64   65 1    
   126   64  130 1    
   127   65   66 1    
   128   65   69 1    
   129   65  131 1    
   130   66   67 am   BACKBONE|DICT|INTERRES
   131   66   68 2    
   132   67  132 1    
   133   67  133 1    
   134   69   70 1    
   135   69  134 1    
   136   69  135 1    
   137   70   71 1    
   138   71  136 1    
   139   71  137 1    
@<TRIPOS>SUBSTRUCTURE
     1 UNK         1 GROUP             0       ****    0 ROOT    
