@<TRIPOS>MOLECULE
3R137
137   139    1
SMALL
USER_CHARGES


@<TRIPOS>ATOM
      1 CA         28.5763   -9.0718   -1.4364 C.3       0 UNK        -0.2020 
      2 C          28.1312   -7.7844   -0.7592 C.2       0 UNK         0.4855 
      3 O          27.4830   -7.8341    0.2861 O.2       0 UNK        -0.5197 
      4 N          28.4693   -6.6302   -1.3485 N.am      1 UNK        -0.4892 
      5 CA         28.1238   -5.2919   -0.8478 C.3       1 UNK         0.0835 
      6 C6         29.1278   -4.2170   -1.3367 C.3       12 UNK        -0.0855 
      7 S7         29.3824   -4.1908   -3.1461 S.3       12 UNK        -0.2931 
      8 C8         28.4951   -2.6767   -3.6181 C.3       12 UNK         0.0378 
      9 C9         29.2276   -1.4102   -3.2039 C.ar      12 UNK        -0.0802 
     10 C10        30.3567   -0.9867   -3.9107 C.ar      12 UNK        -0.0944 
     11 C11        31.0017    0.2058   -3.5706 C.ar      12 UNK        -0.0787 
     12 C12        30.5180    0.9718   -2.5057 C.ar      12 UNK        -0.0862 
     13 C13        29.3902    0.5562   -1.7907 C.ar      12 UNK        -0.0733 
     14 C14        28.7504   -0.6359   -2.1432 C.ar      12 UNK        -0.0832 
     15 C15        28.8433    1.4041   -0.6528 C.3       12 UNK         0.0240 
     16 S16        27.2340    2.1401   -1.0803 S.3       12 UNK        -0.2522 
     17 C17        27.6914    3.3103   -2.4060 C.3       12 UNK        -0.0967 
     18 CA         27.5502    2.7228   -3.8388 C.3       5 UNK         0.0660 
     19 N          26.2242    2.1367   -4.0648 N.am      5 UNK        -0.4015 
     20 C          25.9345    1.1960   -4.9718 C.2       4 UNK         0.4946 
     21 O          26.7493    0.7401   -5.7771 O.2       4 UNK        -0.5353 
     22 CA         24.4717    0.7252   -5.0253 C.3       4 UNK         0.0277 
     23 CB         23.6987    1.5212   -6.0903 C.3       4 UNK        -0.1981 
     24 N          24.3693   -0.7051   -5.3265 N.am      4 UNK        -0.4209 
     25 C          24.7845   -1.6842   -4.5120 C.2       3 UNK         0.4942 
     26 O          25.2420   -1.4841   -3.3844 O.2       3 UNK        -0.5208 
     27 CA         24.6578   -3.1194   -5.0607 C.3       3 UNK         0.0250 
     28 CB         25.6027   -3.3653   -6.2512 C.3       3 UNK        -0.1990 
     29 N          24.9114   -4.1355   -4.0342 N.am      3 UNK        -0.4232 
     30 C          24.0331   -4.4895   -3.0870 C.2       2 UNK         0.4993 
     31 O          22.8960   -4.0224   -3.0000 O.2       2 UNK        -0.5286 
     32 CA         24.4686   -5.5727   -2.0858 C.3       2 UNK         0.0209 
     33 CB         23.9182   -6.9443   -2.5123 C.3       2 UNK        -0.1931 
     34 N          25.9200   -5.6827   -1.9044 N.am      2 UNK        -0.4546 
     35 C          26.6484   -4.8954   -1.0985 C.2       1 UNK         0.5154 
     36 O          26.1875   -3.9091   -0.5226 O.2       1 UNK        -0.5181 
     37 C          27.8751    3.7699   -4.9271 C.2       5 UNK         0.5014 
     38 O          27.9906    4.9604   -4.6267 O.2       5 UNK        -0.5248 
     39 N          27.9665    3.3196   -6.1808 N.am      6 UNK        -0.4434 
     40 CA         28.1423    4.1379   -7.3752 C.3       6 UNK         0.0363 
     41 CB         26.7806    4.7381   -7.7861 C.3       6 UNK        -0.1936 
     42 C          28.7426    3.2785   -8.4950 C.2       6 UNK         0.5081 
     43 O          28.9869    2.0857   -8.2987 O.2       6 UNK        -0.5248 
     44 N          28.9216    3.8896   -9.6753 N.am      7 UNK        -0.4718 
     45 CA         29.4694    3.2812  -10.8967 C.3       7 UNK         0.0273 
     46 CB         29.5032    4.3368  -12.0132 C.3       7 UNK        -0.1935 
     47 C          28.7463    2.0097  -11.3837 C.2       7 UNK         0.5018 
     48 O          29.3571    1.2158  -12.0982 O.2       7 UNK        -0.5186 
     49 N          27.4982    1.7957  -10.9420 N.am      8 UNK        -0.4240 
     50 CA         26.7414    0.5488  -11.0979 C.3       8 UNK         0.0235 
     51 CB         25.3424    0.7316  -10.4865 C.3       8 UNK        -0.2000 
     52 C          27.4357   -0.6833  -10.4799 C.2       8 UNK         0.4941 
     53 O          27.2550   -1.7882  -10.9922 O.2       8 UNK        -0.5273 
     54 N          28.2318   -0.4726   -9.4216 N.am      9 UNK        -0.4262 
     55 CA         29.0735   -1.4852   -8.7803 C.3       9 UNK         0.0264 
     56 CB         28.9069   -1.3639   -7.2576 C.3       9 UNK        -0.1955 
     57 C          30.5563   -1.3436   -9.1764 C.2       9 UNK         0.5031 
     58 O          31.4009   -2.0103   -8.5745 O.2       9 UNK        -0.5390 
     59 N          30.8596   -0.4759  -10.1551 N.am      10 UNK        -0.4204 
     60 CA         32.1773   -0.0657  -10.6574 C.3       10 UNK         0.0237 
     61 CB         32.9599   -1.2506  -11.2584 C.3       10 UNK        -0.1985 
     62 C          33.0190    0.7119   -9.6308 C.2       10 UNK         0.4970 
     63 O          33.4146    1.8423   -9.9166 O.2       10 UNK        -0.4914 
     64 N          33.2786    0.0922   -8.4735 N.am      11 UNK        -0.4285 
     65 CA         34.0771    0.6111   -7.3488 C.3       11 UNK         0.1007 
     66 C          35.5800    0.8739   -7.6777 C.2       11 UNK         0.5703 
     67 N          36.1379    0.2830   -8.7283 N.am      11 UNK        -0.7361 
     68 O          36.2661    1.5929   -6.9545 O.2       11 UNK        -0.4986 
     69 C69        33.3950    1.8056   -6.6185 C.3       12 UNK        -0.0947 
     70 S70        31.7484    1.3862   -5.9554 S.3       12 UNK        -0.2240 
     71 C71        32.2210    0.6618   -4.3549 C.3       12 UNK         0.0194 
     72 H72        29.1388   -8.8794   -2.3498 H         1 UNK         0.0906 
     73 H73        29.2101   -9.6492   -0.7638 H         1 UNK         0.0906 
     74 H74        27.7094   -9.6799   -1.6935 H         1 UNK         0.0906 
     75 H75        29.0067   -6.6376   -2.2056 H         1 UNK         0.3140 
     76 H76        28.2183   -5.3243    0.2404 H         1 UNK         0.1085 
     77 H77        30.1006   -4.4106   -0.8820 H         1 UNK         0.0836 
     78 H78        28.8418   -3.2279   -0.9761 H         1 UNK         0.0836 
     79 H79        27.4932   -2.7050   -3.1913 H         1 UNK         0.0731 
     80 H80        28.3701   -2.6679   -4.6985 H         1 UNK         0.0731 
     81 H81        30.7268   -1.5787   -4.7364 H         1 UNK         0.1312 
     82 H82        31.0117    1.8974   -2.2429 H         1 UNK         0.1406 
     83 H83        27.8634   -0.9461   -1.6062 H         1 UNK         0.1631 
     84 H84        29.5435    2.1938   -0.3759 H         1 UNK         0.0717 
     85 H85        28.7212    0.7785    0.2325 H         1 UNK         0.0717 
     86 H86        27.0529    4.1884   -2.2899 H         1 UNK         0.0934 
     87 H87        28.7117    3.6602   -2.2378 H         1 UNK         0.0934 
     88 H88        28.2883    1.9265   -3.9484 H         1 UNK         0.0739 
     89 H89        25.4914    2.4727   -3.4576 H         1 UNK         0.3093 
     90 H90        24.0082    0.8973   -4.0513 H         1 UNK         0.0818 
     91 H91        23.7318    2.5912   -5.8802 H         1 UNK         0.0819 
     92 H92        24.1178    1.3738   -7.0867 H         1 UNK         0.0819 
     93 H93        22.6482    1.2312   -6.1203 H         1 UNK         0.0819 
     94 H94        24.0339   -0.9472   -6.2470 H         1 UNK         0.3041 
     95 H95        23.6319   -3.2393   -5.4163 H         1 UNK         0.0784 
     96 H96        25.4675   -2.6195   -7.0354 H         1 UNK         0.0793 
     97 H97        26.6487   -3.3377   -5.9541 H         1 UNK         0.0793 
     98 H98        25.4157   -4.3393   -6.7039 H         1 UNK         0.0793 
     99 H99        25.8315   -4.5481   -4.0102 H         1 UNK         0.3024 
    100 H100       24.0195   -5.3140   -1.1237 H         1 UNK         0.1171 
    101 H101       24.3350   -7.2688   -3.4667 H         1 UNK         0.0786 
    102 H102       24.1420   -7.7101   -1.7692 H         1 UNK         0.0786 
    103 H103       22.8334   -6.9125   -2.6247 H         1 UNK         0.0786 
    104 H104       26.3799   -6.4747   -2.3295 H         1 UNK         0.2977 
    105 H105       27.8794    2.3187   -6.3511 H         1 UNK         0.3127 
    106 H106       28.8501    4.9408   -7.1591 H         1 UNK         0.0770 
    107 H107       26.0596    3.9593   -8.0385 H         1 UNK         0.0814 
    108 H108       26.8721    5.3954   -8.6510 H         1 UNK         0.0814 
    109 H109       26.3517    5.3369   -6.9825 H         1 UNK         0.0814 
    110 H110       28.6838    4.8692   -9.7420 H         1 UNK         0.2983 
    111 H111       30.4976    2.9884  -10.6722 H         1 UNK         0.0947 
    112 H112       29.9328    3.9254  -12.9279 H         1 UNK         0.0806 
    113 H113       30.1134    5.1952  -11.7314 H         1 UNK         0.0806 
    114 H114       28.5035    4.6986  -12.2571 H         1 UNK         0.0806 
    115 H115       27.0827    2.5074  -10.3596 H         1 UNK         0.3000 
    116 H116       26.6320    0.3613  -12.1681 H         1 UNK         0.0850 
    117 H117       25.3943    0.9451   -9.4178 H         1 UNK         0.0810 
    118 H118       24.7423   -0.1712  -10.6092 H         1 UNK         0.0810 
    119 H119       24.8005    1.5461  -10.9675 H         1 UNK         0.0810 
    120 H120       28.3379    0.4733   -9.0573 H         1 UNK         0.3040 
    121 H121       28.7551   -2.4862   -9.0773 H         1 UNK         0.0766 
    122 H122       29.2715   -0.4050   -6.8859 H         1 UNK         0.0812 
    123 H123       27.8618   -1.4544   -6.9645 H         1 UNK         0.0812 
    124 H124       29.4607   -2.1489   -6.7429 H         1 UNK         0.0812 
    125 H125       30.0853    0.0021  -10.6024 H         1 UNK         0.3205 
    126 H126       31.9720    0.6269  -11.4752 H         1 UNK         0.0754 
    127 H127       33.8952   -0.9108  -11.7051 H         1 UNK         0.0769 
    128 H128       32.3866   -1.7420  -12.0445 H         1 UNK         0.0769 
    129 H129       33.2131   -2.0030  -10.5112 H         1 UNK         0.0769 
    130 H130       32.8486   -0.8189   -8.3355 H         1 UNK         0.2981 
    131 H131       34.1152   -0.2129   -6.6364 H         1 UNK         0.0541 
    132 H132       37.1119    0.4478   -8.9275 H         1 UNK         0.3459 
    133 H133       35.5951   -0.3230   -9.3216 H         1 UNK         0.3459 
    134 H134       33.2855    2.6540   -7.2954 H         1 UNK         0.0612 
    135 H135       34.0091    2.1618   -5.7898 H         1 UNK         0.0612 
    136 H136       32.8835   -0.1886   -4.5214 H         1 UNK         0.0624 
    137 H137       32.7920    1.3936   -3.7816 H         1 UNK         0.0624 
@<TRIPOS>BOND
     1    1    2 1    
     2    1   72 1    
     3    1   73 1    
     4    1   74 1    
     5    2    3 2    
     6    2    4 am   BACKBONE|DICT|INTERRES
     7    4    5 1    
     8    4   75 1    
     9    5    6 1    
    10    5   35 1    
    11    5   76 1    
    12    6    7 1    
    13    6   77 1    
    14    6   78 1    
    15    7    8 1    
    16    8    9 1    
    17    8   79 1    
    18    8   80 1    
    19    9   10 ar   
    20    9   14 ar   
    21   10   11 ar   
    22   10   81 1    
    23   11   12 ar   
    24   11   71 1    
    25   12   13 ar   
    26   12   82 1    
    27   13   14 ar   
    28   13   15 1    
    29   14   83 1    
    30   15   16 1    
    31   15   84 1    
    32   15   85 1    
    33   16   17 1    
    34   17   18 1    
    35   17   86 1    
    36   17   87 1    
    37   18   19 1    
    38   18   37 1    
    39   18   88 1    
    40   19   20 am   BACKBONE|DICT|INTERRES
    41   19   89 1    
    42   20   21 2    
    43   20   22 1    
    44   22   23 1    
    45   22   24 1    
    46   22   90 1    
    47   23   91 1    
    48   23   92 1    
    49   23   93 1    
    50   24   25 am   BACKBONE|DICT|INTERRES
    51   24   94 1    
    52   25   26 2    
    53   25   27 1    
    54   27   28 1    
    55   27   29 1    
    56   27   95 1    
    57   28   96 1    
    58   28   97 1    
    59   28   98 1    
    60   29   30 am   BACKBONE|DICT|INTERRES
    61   29   99 1    
    62   30   31 2    
    63   30   32 1    
    64   32   33 1    
    65   32   34 1    
    66   32  100 1    
    67   33  101 1    
    68   33  102 1    
    69   33  103 1    
    70   34   35 am   BACKBONE|DICT|INTERRES
    71   34  104 1    
    72   35   36 2    
    73   37   38 2    
    74   37   39 am   BACKBONE|DICT|INTERRES
    75   39   40 1    
    76   39  105 1    
    77   40   41 1    
    78   40   42 1    
    79   40  106 1    
    80   41  107 1    
    81   41  108 1    
    82   41  109 1    
    83   42   43 2    
    84   42   44 am   BACKBONE|DICT|INTERRES
    85   44   45 1    
    86   44  110 1    
    87   45   46 1    
    88   45   47 1    
    89   45  111 1    
    90   46  112 1    
    91   46  113 1    
    92   46  114 1    
    93   47   48 2    
    94   47   49 am   BACKBONE|DICT|INTERRES
    95   49   50 1    
    96   49  115 1    
    97   50   51 1    
    98   50   52 1    
    99   50  116 1    
   100   51  117 1    
   101   51  118 1    
   102   51  119 1    
   103   52   53 2    
   104   52   54 am   BACKBONE|DICT|INTERRES
   105   54   55 1    
   106   54  120 1    
   107   55   56 1    
   108   55   57 1    
   109   55  121 1    
   110   56  122 1    
   111   56  123 1    
   112   56  124 1    
   113   57   58 2    
   114   57   59 am   BACKBONE|DICT|INTERRES
   115   59   60 1    
   116   59  125 1    
   117   60   61 1    
   118   60   62 1    
   119   60  126 1    
   120   61  127 1    
   121   61  128 1    
   122   61  129 1    
   123   62   63 2    
   124   62   64 am   BACKBONE|DICT|INTERRES
   125   64   65 1    
   126   64  130 1    
   127   65   66 1    
   128   65   69 1    
   129   65  131 1    
   130   66   67 am   BACKBONE|DICT|INTERRES
   131   66   68 2    
   132   67  132 1    
   133   67  133 1    
   134   69   70 1    
   135   69  134 1    
   136   69  135 1    
   137   70   71 1    
   138   71  136 1    
   139   71  137 1    
@<TRIPOS>SUBSTRUCTURE
     1 UNK         1 GROUP             0       ****    0 ROOT    
