@<TRIPOS>MOLECULE
3R137
137   139    1
SMALL
USER_CHARGES


@<TRIPOS>ATOM
      1 CA         26.9465   -8.5920   -0.7493 C.3       0 UNK        -0.2020 
      2 C          26.5768   -7.1514   -0.4297 C.2       0 UNK         0.4855 
      3 O          25.9095   -6.8984    0.5735 O.2       0 UNK        -0.5197 
      4 N          27.0046   -6.2045   -1.2752 N.am      1 UNK        -0.4892 
      5 CA         26.7628   -4.7626   -1.1143 C.3       1 UNK         0.0835 
      6 C6         27.6539   -3.9127   -2.0559 C.3       12 UNK        -0.0855 
      7 S7         29.4328   -4.2966   -1.9440 S.3       12 UNK        -0.2931 
      8 C8         30.0586   -3.3893   -3.3963 C.3       12 UNK         0.0378 
      9 C9         30.7572   -2.0936   -3.0078 C.ar      12 UNK        -0.0802 
     10 C10        32.1262   -1.9421   -3.2440 C.ar      12 UNK        -0.0944 
     11 C11        32.7785   -0.7495   -2.9177 C.ar      12 UNK        -0.0787 
     12 C12        32.0513    0.2969   -2.3438 C.ar      12 UNK        -0.0862 
     13 C13        30.6844    0.1553   -2.0860 C.ar      12 UNK        -0.0733 
     14 C14        30.0433   -1.0420   -2.4243 C.ar      12 UNK        -0.0832 
     15 C15        29.9214    1.2834   -1.3998 C.3       12 UNK         0.0240 
     16 S16        28.3711    1.7293   -2.2457 S.3       12 UNK        -0.2522 
     17 C17        28.9749    2.3115   -3.8673 C.3       12 UNK        -0.0967 
     18 CA         28.7439    1.2674   -4.9999 C.3       5 UNK         0.0660 
     19 N          27.3480    0.8206   -5.0661 N.am      5 UNK        -0.4015 
     20 C          26.2998    1.5262   -5.5047 C.2       4 UNK         0.4946 
     21 O          26.4075    2.6175   -6.0674 O.2       4 UNK        -0.5353 
     22 CA         24.8983    0.9247   -5.2579 C.3       4 UNK         0.0277 
     23 CB         23.7878    1.7405   -5.9487 C.3       4 UNK        -0.1981 
     24 N          24.7610   -0.4825   -5.6525 N.am      4 UNK        -0.4209 
     25 C          25.2894   -1.5415   -5.0271 C.2       3 UNK         0.4942 
     26 O          26.0360   -1.4636   -4.0483 O.2       3 UNK        -0.5208 
     27 CA         24.9690   -2.9199   -5.6248 C.3       3 UNK         0.0250 
     28 CB         26.1965   -3.4821   -6.3626 C.3       3 UNK        -0.1990 
     29 N          24.5722   -3.8590   -4.5775 N.am      3 UNK        -0.4232 
     30 C          23.4188   -3.8194   -3.8931 C.2       2 UNK         0.4993 
     31 O          22.4981   -3.0411   -4.1446 O.2       2 UNK        -0.5286 
     32 CA         23.2715   -4.8157   -2.7266 C.3       2 UNK         0.0209 
     33 CB         22.5489   -6.0912   -3.1897 C.3       2 UNK        -0.1931 
     34 N          24.5703   -5.1755   -2.1497 N.am      2 UNK        -0.4546 
     35 C          25.2894   -4.3699   -1.3536 C.2       1 UNK         0.5154 
     36 O          24.8506   -3.3292   -0.8621 O.2       1 UNK        -0.5181 
     37 C          29.2620    1.7195   -6.3852 C.2       5 UNK         0.5014 
     38 O          29.1593    0.9563   -7.3492 O.2       5 UNK        -0.5248 
     39 N          29.8011    2.9429   -6.4788 N.am      6 UNK        -0.4434 
     40 CA         30.3056    3.5413   -7.7149 C.3       6 UNK         0.0363 
     41 CB         31.1237    4.7971   -7.3782 C.3       6 UNK        -0.1936 
     42 C          29.2110    3.8658   -8.7462 C.2       6 UNK         0.5081 
     43 O          29.5108    3.8650   -9.9391 O.2       6 UNK        -0.5248 
     44 N          27.9641    4.0935   -8.3037 N.am      7 UNK        -0.4718 
     45 CA         26.8191    4.3272   -9.1948 C.3       7 UNK         0.0273 
     46 CB         25.6528    4.9478   -8.4090 C.3       7 UNK        -0.1935 
     47 C          26.3736    3.0470   -9.9232 C.2       7 UNK         0.5018 
     48 O          25.8880    3.1306  -11.0513 O.2       7 UNK        -0.5186 
     49 N          26.5914    1.8889   -9.2854 N.am      8 UNK        -0.4240 
     50 CA         26.4290    0.5588   -9.8788 C.3       8 UNK         0.0235 
     51 CB         25.9628   -0.4136   -8.7863 C.3       8 UNK        -0.2000 
     52 C          27.7176    0.0453  -10.5507 C.2       8 UNK         0.4941 
     53 O          27.7101   -1.0669  -11.0791 O.2       8 UNK        -0.5273 
     54 N          28.7951    0.8442  -10.5078 N.am      9 UNK        -0.4262 
     55 CA         30.1407    0.5694  -11.0197 C.3       9 UNK         0.0264 
     56 CB         30.1317    0.4401  -12.5581 C.3       9 UNK        -0.1955 
     57 C          30.8481   -0.6095  -10.3205 C.2       9 UNK         0.5031 
     58 O          31.6991   -1.2528  -10.9376 O.2       9 UNK        -0.5390 
     59 N          30.5270   -0.8562   -9.0405 N.am      10 UNK        -0.4204 
     60 CA         31.2049   -1.8546   -8.2057 C.3       10 UNK         0.0237 
     61 CB         30.3495   -2.1760   -6.9679 C.3       10 UNK        -0.1985 
     62 C          32.6117   -1.3871   -7.7944 C.2       10 UNK         0.4970 
     63 O          33.5460   -2.1885   -7.8140 O.2       10 UNK        -0.4914 
     64 N          32.7257   -0.0930   -7.4733 N.am      11 UNK        -0.4285 
     65 CA         33.9676    0.6277   -7.1546 C.3       11 UNK         0.1007 
     66 C          34.0244    1.9891   -7.9071 C.2       11 UNK         0.5703 
     67 N          33.4879    2.0769   -9.1193 N.am      11 UNK        -0.7361 
     68 O          34.5553    2.9764   -7.4049 O.2       11 UNK        -0.4986 
     69 C69        34.1983    0.7487   -5.6201 C.3       12 UNK        -0.0947 
     70 S70        34.7455   -0.8269   -4.8871 S.3       12 UNK        -0.2240 
     71 C71        34.2778   -0.6103   -3.1431 C.3       12 UNK         0.0194 
     72 H72        27.5260   -9.0203    0.0682 H         1 UNK         0.0906 
     73 H73        26.0454   -9.1910   -0.8784 H         1 UNK         0.0906 
     74 H74        27.5388   -8.6694   -1.6608 H         1 UNK         0.0906 
     75 H75        27.5872   -6.4624   -2.0599 H         1 UNK         0.3140 
     76 H76        27.0035   -4.4962   -0.0825 H         1 UNK         0.1085 
     77 H77        27.5178   -2.8513   -1.8408 H         1 UNK         0.0836 
     78 H78        27.3432   -4.0514   -3.0933 H         1 UNK         0.0836 
     79 H79        30.7447   -4.0449   -3.9349 H         1 UNK         0.0731 
     80 H80        29.2507   -3.1655   -4.0943 H         1 UNK         0.0731 
     81 H81        32.6908   -2.7519   -3.6859 H         1 UNK         0.1312 
     82 H82        32.5563    1.2151   -2.0757 H         1 UNK         0.1406 
     83 H83        28.9862   -1.1531   -2.2295 H         1 UNK         0.1631 
     84 H84        30.5405    2.1776   -1.3112 H         1 UNK         0.0717 
     85 H85        29.6849    0.9727   -0.3814 H         1 UNK         0.0717 
     86 H86        28.4505    3.2435   -4.0878 H         1 UNK         0.0934 
     87 H87        30.0339    2.5610   -3.7763 H         1 UNK         0.0934 
     88 H88        29.3273    0.3802   -4.7548 H         1 UNK         0.0739 
     89 H89        27.1412   -0.0699   -4.6203 H         1 UNK         0.3093 
     90 H90        24.7275    0.9836   -4.1808 H         1 UNK         0.0818 
     91 H91        22.7990    1.3414   -5.7220 H         1 UNK         0.0819 
     92 H92        23.7975    2.7782   -5.6121 H         1 UNK         0.0819 
     93 H93        23.9085    1.7508   -7.0326 H         1 UNK         0.0819 
     94 H94        24.1720   -0.6541   -6.4540 H         1 UNK         0.3041 
     95 H95        24.1443   -2.8274   -6.3349 H         1 UNK         0.0784 
     96 H96        26.5095   -2.8194   -7.1692 H         1 UNK         0.0793 
     97 H97        27.0511   -3.6030   -5.6955 H         1 UNK         0.0793 
     98 H98        25.9807   -4.4524   -6.8103 H         1 UNK         0.0793 
     99 H99        25.2698   -4.5257   -4.2873 H         1 UNK         0.3024 
    100 H100       22.6640   -4.3345   -1.9563 H         1 UNK         0.1171 
    101 H101       21.5671   -5.8540   -3.6022 H         1 UNK         0.0786 
    102 H102       22.3919   -6.7810   -2.3601 H         1 UNK         0.0786 
    103 H103       23.1089   -6.6175   -3.9637 H         1 UNK         0.0786 
    104 H104       24.9970   -6.0344   -2.4663 H         1 UNK         0.2977 
    105 H105       29.8356    3.5236   -5.6540 H         1 UNK         0.3127 
    106 H106       30.9751    2.8181   -8.1829 H         1 UNK         0.0770 
    107 H107       30.5167    5.5560   -6.8831 H         1 UNK         0.0814 
    108 H108       31.5351    5.2474   -8.2828 H         1 UNK         0.0814 
    109 H109       31.9664    4.5595   -6.7284 H         1 UNK         0.0814 
    110 H110       27.7617    4.0091   -7.3147 H         1 UNK         0.2983 
    111 H111       27.1260    5.0459   -9.9584 H         1 UNK         0.0947 
    112 H112       24.8329    5.2108   -9.0787 H         1 UNK         0.0806 
    113 H113       25.9581    5.8608   -7.8978 H         1 UNK         0.0806 
    114 H114       25.2500    4.2630   -7.6632 H         1 UNK         0.0806 
    115 H115       26.9856    1.9280   -8.3534 H         1 UNK         0.3000 
    116 H116       25.6583    0.5943  -10.6517 H         1 UNK         0.0850 
    117 H117       25.8342   -1.4218   -9.1824 H         1 UNK         0.0810 
    118 H118       26.6806   -0.4696   -7.9668 H         1 UNK         0.0810 
    119 H119       25.0002   -0.1037   -8.3836 H         1 UNK         0.0810 
    120 H120       28.6869    1.7459  -10.0626 H         1 UNK         0.3040 
    121 H121       30.7329    1.4522  -10.7750 H         1 UNK         0.0766 
    122 H122       29.6414    1.2945  -13.0247 H         1 UNK         0.0812 
    123 H123       29.6173   -0.4636  -12.8860 H         1 UNK         0.0812 
    124 H124       31.1470    0.3965  -12.9541 H         1 UNK         0.0812 
    125 H125       29.8433   -0.2592   -8.5772 H         1 UNK         0.3205 
    126 H126       31.3114   -2.7722   -8.7884 H         1 UNK         0.0754 
    127 H127       30.7993   -2.9839   -6.3897 H         1 UNK         0.0769 
    128 H128       29.3460   -2.4963   -7.2488 H         1 UNK         0.0769 
    129 H129       30.2542   -1.3185   -6.3022 H         1 UNK         0.0769 
    130 H130       31.8963    0.4805   -7.5104 H         1 UNK         0.2981 
    131 H131       34.8107    0.0737   -7.5712 H         1 UNK         0.0541 
    132 H132       33.5376    2.9548   -9.6115 H         1 UNK         0.3459 
    133 H133       33.1279    1.2580   -9.5804 H         1 UNK         0.3459 
    134 H134       33.2914    1.0982   -5.1241 H         1 UNK         0.0612 
    135 H135       34.9766    1.4777   -5.3894 H         1 UNK         0.0612 
    136 H136       34.6438    0.3561   -2.7928 H         1 UNK         0.0624 
    137 H137       34.7912   -1.3674   -2.5491 H         1 UNK         0.0624 
@<TRIPOS>BOND
     1    1    2 1    
     2    1   72 1    
     3    1   73 1    
     4    1   74 1    
     5    2    3 2    
     6    2    4 am   BACKBONE|DICT|INTERRES
     7    4    5 1    
     8    4   75 1    
     9    5    6 1    
    10    5   35 1    
    11    5   76 1    
    12    6    7 1    
    13    6   77 1    
    14    6   78 1    
    15    7    8 1    
    16    8    9 1    
    17    8   79 1    
    18    8   80 1    
    19    9   10 ar   
    20    9   14 ar   
    21   10   11 ar   
    22   10   81 1    
    23   11   12 ar   
    24   11   71 1    
    25   12   13 ar   
    26   12   82 1    
    27   13   14 ar   
    28   13   15 1    
    29   14   83 1    
    30   15   16 1    
    31   15   84 1    
    32   15   85 1    
    33   16   17 1    
    34   17   18 1    
    35   17   86 1    
    36   17   87 1    
    37   18   19 1    
    38   18   37 1    
    39   18   88 1    
    40   19   20 am   BACKBONE|DICT|INTERRES
    41   19   89 1    
    42   20   21 2    
    43   20   22 1    
    44   22   23 1    
    45   22   24 1    
    46   22   90 1    
    47   23   91 1    
    48   23   92 1    
    49   23   93 1    
    50   24   25 am   BACKBONE|DICT|INTERRES
    51   24   94 1    
    52   25   26 2    
    53   25   27 1    
    54   27   28 1    
    55   27   29 1    
    56   27   95 1    
    57   28   96 1    
    58   28   97 1    
    59   28   98 1    
    60   29   30 am   BACKBONE|DICT|INTERRES
    61   29   99 1    
    62   30   31 2    
    63   30   32 1    
    64   32   33 1    
    65   32   34 1    
    66   32  100 1    
    67   33  101 1    
    68   33  102 1    
    69   33  103 1    
    70   34   35 am   BACKBONE|DICT|INTERRES
    71   34  104 1    
    72   35   36 2    
    73   37   38 2    
    74   37   39 am   BACKBONE|DICT|INTERRES
    75   39   40 1    
    76   39  105 1    
    77   40   41 1    
    78   40   42 1    
    79   40  106 1    
    80   41  107 1    
    81   41  108 1    
    82   41  109 1    
    83   42   43 2    
    84   42   44 am   BACKBONE|DICT|INTERRES
    85   44   45 1    
    86   44  110 1    
    87   45   46 1    
    88   45   47 1    
    89   45  111 1    
    90   46  112 1    
    91   46  113 1    
    92   46  114 1    
    93   47   48 2    
    94   47   49 am   BACKBONE|DICT|INTERRES
    95   49   50 1    
    96   49  115 1    
    97   50   51 1    
    98   50   52 1    
    99   50  116 1    
   100   51  117 1    
   101   51  118 1    
   102   51  119 1    
   103   52   53 2    
   104   52   54 am   BACKBONE|DICT|INTERRES
   105   54   55 1    
   106   54  120 1    
   107   55   56 1    
   108   55   57 1    
   109   55  121 1    
   110   56  122 1    
   111   56  123 1    
   112   56  124 1    
   113   57   58 2    
   114   57   59 am   BACKBONE|DICT|INTERRES
   115   59   60 1    
   116   59  125 1    
   117   60   61 1    
   118   60   62 1    
   119   60  126 1    
   120   61  127 1    
   121   61  128 1    
   122   61  129 1    
   123   62   63 2    
   124   62   64 am   BACKBONE|DICT|INTERRES
   125   64   65 1    
   126   64  130 1    
   127   65   66 1    
   128   65   69 1    
   129   65  131 1    
   130   66   67 am   BACKBONE|DICT|INTERRES
   131   66   68 2    
   132   67  132 1    
   133   67  133 1    
   134   69   70 1    
   135   69  134 1    
   136   69  135 1    
   137   70   71 1    
   138   71  136 1    
   139   71  137 1    
@<TRIPOS>SUBSTRUCTURE
     1 UNK         1 GROUP             0       ****    0 ROOT    
