@<TRIPOS>MOLECULE
3R137
137   139    1
SMALL
USER_CHARGES


@<TRIPOS>ATOM
      1 CA         24.6764   -1.5076    4.5791 C.3       0 UNK        -0.2020 
      2 C          24.8065   -1.0809    3.1245 C.2       0 UNK         0.4855 
      3 O          23.9451   -0.3600    2.6209 O.2       0 UNK        -0.5197 
      4 N          25.8811   -1.5142    2.4517 N.am      1 UNK        -0.4892 
      5 CA         26.1566   -1.2480    1.0349 C.3       1 UNK         0.0835 
      6 C6         27.6361   -1.5723    0.6968 C.3       12 UNK        -0.0855 
      7 S7         28.1272   -1.3096   -1.0463 S.3       12 UNK        -0.2931 
      8 C8         28.9538   -2.8983   -1.3740 C.3       12 UNK         0.0378 
      9 C9         29.5758   -2.9617   -2.7611 C.ar      12 UNK        -0.0802 
     10 C10        30.7646   -2.2722   -3.0234 C.ar      12 UNK        -0.0944 
     11 C11        31.3937   -2.3937   -4.2652 C.ar      12 UNK        -0.0787 
     12 C12        30.8308   -3.2170   -5.2421 C.ar      12 UNK        -0.0862 
     13 C13        29.6245   -3.8833   -5.0081 C.ar      12 UNK        -0.0733 
     14 C14        29.0010   -3.7535   -3.7628 C.ar      12 UNK        -0.0832 
     15 C15        29.0238   -4.7691   -6.0938 C.3       12 UNK         0.0240 
     16 S16        27.6884   -3.9518   -7.0310 S.3       12 UNK        -0.2522 
     17 C17        28.5172   -2.4706   -7.7167 C.3       12 UNK        -0.0967 
     18 CA         27.8211   -1.1310   -7.3603 C.3       5 UNK         0.0660 
     19 N          27.2340   -1.1249   -6.0112 N.am      5 UNK        -0.4015 
     20 C          26.3677   -0.2154   -5.5439 C.2       4 UNK         0.4946 
     21 O          26.0777    0.8189   -6.1497 O.2       4 UNK        -0.5353 
     22 CA         25.7367   -0.5150   -4.1723 C.3       4 UNK         0.0277 
     23 CB         24.6406    0.5032   -3.7926 C.3       4 UNK        -0.1981 
     24 N          25.2256   -1.8878   -4.0583 N.am      4 UNK        -0.4209 
     25 C          24.3044   -2.4936   -4.8243 C.2       3 UNK         0.4942 
     26 O          23.7845   -1.9768   -5.8136 O.2       3 UNK        -0.5208 
     27 CA         23.8404   -3.9052   -4.4056 C.3       3 UNK         0.0250 
     28 CB         24.7118   -4.9992   -5.0550 C.3       3 UNK        -0.1990 
     29 N          23.7016   -4.0980   -2.9513 N.am      3 UNK        -0.4232 
     30 C          24.6708   -4.1322   -2.0271 C.2       2 UNK         0.4993 
     31 O          25.8722   -4.0811   -2.2939 O.2       2 UNK        -0.5286 
     32 CA         24.2292   -4.1909   -0.5539 C.3       2 UNK         0.0209 
     33 CB         24.3187   -5.6297   -0.0211 C.3       2 UNK        -0.1931 
     34 N          25.0498   -3.3117    0.2867 N.am      2 UNK        -0.4546 
     35 C          25.1442   -1.9818    0.1301 C.2       1 UNK         0.5154 
     36 O          24.4554   -1.3369   -0.6621 O.2       1 UNK        -0.5181 
     37 C          28.7408    0.0783   -7.6572 C.2       5 UNK         0.5014 
     38 O          29.0771    0.3172   -8.8197 O.2       5 UNK        -0.5248 
     39 N          29.0862    0.8577   -6.6217 N.am      6 UNK        -0.4434 
     40 CA         29.7108    2.1787   -6.7105 C.3       6 UNK         0.0363 
     41 CB         29.9624    2.7181   -5.2933 C.3       6 UNK        -0.1936 
     42 C          28.8754    3.1898   -7.5167 C.2       6 UNK         0.5081 
     43 O          29.4572    4.0577   -8.1655 O.2       6 UNK        -0.5248 
     44 N          27.5415    3.0329   -7.5246 N.am      7 UNK        -0.4718 
     45 CA         26.6184    3.8181   -8.3530 C.3       7 UNK         0.0273 
     46 CB         25.1731    3.5220   -7.9228 C.3       7 UNK        -0.1935 
     47 C          26.7916    3.5716   -9.8647 C.2       7 UNK         0.5018 
     48 O          26.4767    4.4586  -10.6583 O.2       7 UNK        -0.5186 
     49 N          27.3113    2.3916  -10.2308 N.am      8 UNK        -0.4240 
     50 CA         27.6978    2.0216  -11.5938 C.3       8 UNK         0.0235 
     51 CB         27.2912    0.5565  -11.8362 C.3       8 UNK        -0.2000 
     52 C          29.2074    2.2175  -11.8407 C.2       8 UNK         0.4941 
     53 O          29.6789    1.8795  -12.9269 O.2       8 UNK        -0.5273 
     54 N          29.9405    2.7285  -10.8364 N.am      9 UNK        -0.4262 
     55 CA         31.3957    2.9167  -10.7850 C.3       9 UNK         0.0264 
     56 CB         31.8495    3.9807  -11.8069 C.3       9 UNK        -0.1955 
     57 C          32.1976    1.6033  -10.8948 C.2       9 UNK         0.5031 
     58 O          33.3501    1.6302  -11.3320 O.2       9 UNK        -0.5390 
     59 N          31.5975    0.4756  -10.4830 N.am      10 UNK        -0.4204 
     60 CA         32.1958   -0.8598  -10.5920 C.3       10 UNK         0.0237 
     61 CB         31.1000   -1.9181  -10.4063 C.3       10 UNK        -0.1985 
     62 C          33.3496   -1.1096   -9.6042 C.2       10 UNK         0.4970 
     63 O          34.1490   -2.0171   -9.8368 O.2       10 UNK        -0.4914 
     64 N          33.4124   -0.3190   -8.5255 N.am      11 UNK        -0.4285 
     65 CA         34.4403   -0.4009   -7.4755 C.3       11 UNK         0.1007 
     66 C          35.8505    0.0992   -7.9076 C.2       11 UNK         0.5703 
     67 N          36.0052    0.7575   -9.0514 N.am      11 UNK        -0.7361 
     68 O          36.8243   -0.1206   -7.1913 O.2       11 UNK        -0.4986 
     69 C69        33.9878    0.2926   -6.1611 C.3       12 UNK        -0.0947 
     70 S70        32.3193   -0.2037   -5.6223 S.3       12 UNK        -0.2240 
     71 C71        32.6770   -1.6383   -4.5694 C.3       12 UNK         0.0194 
     72 H72        25.5084   -2.1352    4.8979 H         1 UNK         0.0906 
     73 H73        24.6463   -0.6311    5.2260 H         1 UNK         0.0906 
     74 H74        23.7538   -2.0693    4.7238 H         1 UNK         0.0906 
     75 H75        26.5547   -2.0958    2.9303 H         1 UNK         0.3140 
     76 H76        26.0102   -0.1785    0.8657 H         1 UNK         0.1085 
     77 H77        28.2900   -0.9523    1.3124 H         1 UNK         0.0836 
     78 H78        27.8605   -2.6017    0.9816 H         1 UNK         0.0836 
     79 H79        28.2405   -3.7119   -1.2367 H         1 UNK         0.0731 
     80 H80        29.7365   -3.0531   -0.6297 H         1 UNK         0.0731 
     81 H81        31.2035   -1.6501   -2.2552 H         1 UNK         0.1312 
     82 H82        31.3301   -3.3216   -6.1958 H         1 UNK         0.1406 
     83 H83        28.0822   -4.2895   -3.5665 H         1 UNK         0.1631 
     84 H84        28.6256   -5.6783   -5.6410 H         1 UNK         0.0717 
     85 H85        29.7971   -5.0944   -6.7915 H         1 UNK         0.0717 
     86 H86        29.5593   -2.4566   -7.4061 H         1 UNK         0.0934 
     87 H87        28.5417   -2.5858   -8.8016 H         1 UNK         0.0934 
     88 H88        26.9753   -1.0268   -8.0436 H         1 UNK         0.0739 
     89 H89        27.4132   -1.9525   -5.4599 H         1 UNK         0.3093 
     90 H90        26.5388   -0.4233   -3.4394 H         1 UNK         0.0818 
     91 H91        23.8167    0.4952   -4.5070 H         1 UNK         0.0819 
     92 H92        24.2300    0.2953   -2.8051 H         1 UNK         0.0819 
     93 H93        25.0404    1.5177   -3.7686 H         1 UNK         0.0819 
     94 H94        25.6021   -2.4390   -3.2909 H         1 UNK         0.3041 
     95 H95        22.8317   -4.0235   -4.8051 H         1 UNK         0.0784 
     96 H96        24.6987   -4.9084   -6.1419 H         1 UNK         0.0793 
     97 H97        25.7542   -4.9360   -4.7428 H         1 UNK         0.0793 
     98 H98        24.3474   -5.9962   -4.8081 H         1 UNK         0.0793 
     99 H99        22.7452   -4.1252   -2.6244 H         1 UNK         0.3024 
    100 H100       23.1943   -3.8496   -0.4792 H         1 UNK         0.1171 
    101 H101       23.6971   -6.3042   -0.6116 H         1 UNK         0.0786 
    102 H102       25.3403   -6.0106   -0.0604 H         1 UNK         0.0786 
    103 H103       23.9744   -5.6942    1.0114 H         1 UNK         0.0786 
    104 H104       25.6497   -3.7608    0.9621 H         1 UNK         0.2977 
    105 H105       28.7817    0.5696   -5.7040 H         1 UNK         0.3127 
    106 H106       30.6712    2.0594   -7.2160 H         1 UNK         0.0770 
    107 H107       29.0310    2.8564   -4.7427 H         1 UNK         0.0814 
    108 H108       30.4663    3.6850   -5.3295 H         1 UNK         0.0814 
    109 H109       30.5965    2.0477   -4.7139 H         1 UNK         0.0814 
    110 H110       27.1274    2.2843   -6.9735 H         1 UNK         0.2983 
    111 H111       26.8214    4.8757   -8.1704 H         1 UNK         0.0947 
    112 H112       24.4641    4.1266   -8.4900 H         1 UNK         0.0806 
    113 H113       25.0191    3.7461   -6.8671 H         1 UNK         0.0806 
    114 H114       24.9117    2.4751   -8.0829 H         1 UNK         0.0806 
    115 H115       27.5706    1.7323   -9.5070 H         1 UNK         0.3000 
    116 H116       27.1679    2.6467  -12.3157 H         1 UNK         0.0850 
    117 H117       27.5038    0.2550  -12.8627 H         1 UNK         0.0810 
    118 H118       26.2236    0.4090  -11.6726 H         1 UNK         0.0810 
    119 H119       27.8291   -0.1278  -11.1790 H         1 UNK         0.0810 
    120 H120       29.4534    3.0098   -9.9935 H         1 UNK         0.3040 
    121 H121       31.6103    3.3097   -9.7903 H         1 UNK         0.0766 
    122 H122       31.2792    4.9032  -11.6985 H         1 UNK         0.0812 
    123 H123       31.7334    3.6320  -12.8335 H         1 UNK         0.0812 
    124 H124       32.9012    4.2345  -11.6682 H         1 UNK         0.0812 
    125 H125       30.6601    0.5271  -10.0935 H         1 UNK         0.3205 
    126 H126       32.6008   -0.9647  -11.6008 H         1 UNK         0.0754 
    127 H127       31.4870   -2.9205  -10.5945 H         1 UNK         0.0769 
    128 H128       30.2641   -1.7567  -11.0875 H         1 UNK         0.0769 
    129 H129       30.7166   -1.9034   -9.3883 H         1 UNK         0.0769 
    130 H130       32.7081    0.3915   -8.4030 H         1 UNK         0.2981 
    131 H131       34.5662   -1.4607   -7.2461 H         1 UNK         0.0541 
    132 H132       36.9246    1.0714   -9.3189 H         1 UNK         0.3459 
    133 H133       35.2152    0.9372   -9.6532 H         1 UNK         0.3459 
    134 H134       33.9781    1.3763   -6.2917 H         1 UNK         0.0612 
    135 H135       34.6936    0.0901   -5.3534 H         1 UNK         0.0612 
    136 H136       33.3806   -2.3002   -5.0765 H         1 UNK         0.0624 
    137 H137       33.1625   -1.3041   -3.6513 H         1 UNK         0.0624 
@<TRIPOS>BOND
     1    1    2 1    
     2    1   72 1    
     3    1   73 1    
     4    1   74 1    
     5    2    3 2    
     6    2    4 am   BACKBONE|DICT|INTERRES
     7    4    5 1    
     8    4   75 1    
     9    5    6 1    
    10    5   35 1    
    11    5   76 1    
    12    6    7 1    
    13    6   77 1    
    14    6   78 1    
    15    7    8 1    
    16    8    9 1    
    17    8   79 1    
    18    8   80 1    
    19    9   10 ar   
    20    9   14 ar   
    21   10   11 ar   
    22   10   81 1    
    23   11   12 ar   
    24   11   71 1    
    25   12   13 ar   
    26   12   82 1    
    27   13   14 ar   
    28   13   15 1    
    29   14   83 1    
    30   15   16 1    
    31   15   84 1    
    32   15   85 1    
    33   16   17 1    
    34   17   18 1    
    35   17   86 1    
    36   17   87 1    
    37   18   19 1    
    38   18   37 1    
    39   18   88 1    
    40   19   20 am   BACKBONE|DICT|INTERRES
    41   19   89 1    
    42   20   21 2    
    43   20   22 1    
    44   22   23 1    
    45   22   24 1    
    46   22   90 1    
    47   23   91 1    
    48   23   92 1    
    49   23   93 1    
    50   24   25 am   BACKBONE|DICT|INTERRES
    51   24   94 1    
    52   25   26 2    
    53   25   27 1    
    54   27   28 1    
    55   27   29 1    
    56   27   95 1    
    57   28   96 1    
    58   28   97 1    
    59   28   98 1    
    60   29   30 am   BACKBONE|DICT|INTERRES
    61   29   99 1    
    62   30   31 2    
    63   30   32 1    
    64   32   33 1    
    65   32   34 1    
    66   32  100 1    
    67   33  101 1    
    68   33  102 1    
    69   33  103 1    
    70   34   35 am   BACKBONE|DICT|INTERRES
    71   34  104 1    
    72   35   36 2    
    73   37   38 2    
    74   37   39 am   BACKBONE|DICT|INTERRES
    75   39   40 1    
    76   39  105 1    
    77   40   41 1    
    78   40   42 1    
    79   40  106 1    
    80   41  107 1    
    81   41  108 1    
    82   41  109 1    
    83   42   43 2    
    84   42   44 am   BACKBONE|DICT|INTERRES
    85   44   45 1    
    86   44  110 1    
    87   45   46 1    
    88   45   47 1    
    89   45  111 1    
    90   46  112 1    
    91   46  113 1    
    92   46  114 1    
    93   47   48 2    
    94   47   49 am   BACKBONE|DICT|INTERRES
    95   49   50 1    
    96   49  115 1    
    97   50   51 1    
    98   50   52 1    
    99   50  116 1    
   100   51  117 1    
   101   51  118 1    
   102   51  119 1    
   103   52   53 2    
   104   52   54 am   BACKBONE|DICT|INTERRES
   105   54   55 1    
   106   54  120 1    
   107   55   56 1    
   108   55   57 1    
   109   55  121 1    
   110   56  122 1    
   111   56  123 1    
   112   56  124 1    
   113   57   58 2    
   114   57   59 am   BACKBONE|DICT|INTERRES
   115   59   60 1    
   116   59  125 1    
   117   60   61 1    
   118   60   62 1    
   119   60  126 1    
   120   61  127 1    
   121   61  128 1    
   122   61  129 1    
   123   62   63 2    
   124   62   64 am   BACKBONE|DICT|INTERRES
   125   64   65 1    
   126   64  130 1    
   127   65   66 1    
   128   65   69 1    
   129   65  131 1    
   130   66   67 am   BACKBONE|DICT|INTERRES
   131   66   68 2    
   132   67  132 1    
   133   67  133 1    
   134   69   70 1    
   135   69  134 1    
   136   69  135 1    
   137   70   71 1    
   138   71  136 1    
   139   71  137 1    
@<TRIPOS>SUBSTRUCTURE
     1 UNK         1 GROUP             0       ****    0 ROOT    
