@<TRIPOS>MOLECULE
3R137
137   139    1
SMALL
USER_CHARGES


@<TRIPOS>ATOM
      1 CA         30.6707   -7.3734   -4.0830 C.3       0 UNK        -0.2020 
      2 C          29.5669   -7.0237   -3.0964 C.2       0 UNK         0.4855 
      3 O          28.9522   -7.9225   -2.5219 O.2       0 UNK        -0.5197 
      4 N          29.3073   -5.7255   -2.8978 N.am      1 UNK        -0.4892 
      5 CA         28.3049   -5.1980   -1.9597 C.3       1 UNK         0.0835 
      6 C6         28.6519   -3.7563   -1.5113 C.3       12 UNK        -0.0855 
      7 S7         30.1879   -3.7574   -0.5256 S.3       12 UNK        -0.2931 
      8 C8         30.1919   -2.0834    0.1885 C.3       12 UNK         0.0378 
      9 C9         30.8206   -1.0516   -0.7394 C.ar      12 UNK        -0.0802 
     10 C10        32.1428   -1.2055   -1.1668 C.ar      12 UNK        -0.0944 
     11 C11        32.7517   -0.2324   -1.9628 C.ar      12 UNK        -0.0787 
     12 C12        32.0342    0.9133   -2.3158 C.ar      12 UNK        -0.0862 
     13 C13        30.7024    1.0759   -1.9121 C.ar      12 UNK        -0.0733 
     14 C14        30.1045    0.0858   -1.1241 C.ar      12 UNK        -0.0832 
     15 C15        29.8918    2.3203   -2.2757 C.3       12 UNK         0.0240 
     16 S16        30.3407    3.1137   -3.8599 S.3       12 UNK        -0.2522 
     17 C17        30.1008    1.7637   -5.0696 C.3       12 UNK        -0.0967 
     18 CA         28.7713    1.8350   -5.8556 C.3       5 UNK         0.0660 
     19 N          27.5988    1.6978   -4.9867 N.am      5 UNK        -0.4015 
     20 C          26.3513    1.4919   -5.4231 C.2       4 UNK         0.4946 
     21 O          26.0262    1.5103   -6.6130 O.2       4 UNK        -0.5353 
     22 CA         25.2796    1.2351   -4.3545 C.3       4 UNK         0.0277 
     23 CB         24.2629    2.3884   -4.3259 C.3       4 UNK        -0.1981 
     24 N          24.5836   -0.0248   -4.6184 N.am      4 UNK        -0.4209 
     25 C          25.1592   -1.2339   -4.5732 C.2       3 UNK         0.4942 
     26 O          26.3211   -1.4335   -4.2049 O.2       3 UNK        -0.5208 
     27 CA         24.2908   -2.4139   -5.0243 C.3       3 UNK         0.0250 
     28 CB         23.9622   -2.3326   -6.5292 C.3       3 UNK        -0.1990 
     29 N          25.0040   -3.6550   -4.7397 N.am      3 UNK        -0.4232 
     30 C          24.4547   -4.8684   -4.6346 C.2       2 UNK         0.4993 
     31 O          23.2478   -5.0847   -4.7543 O.2       2 UNK        -0.5286 
     32 CA         25.4018   -6.0513   -4.3709 C.3       2 UNK         0.0209 
     33 CB         25.6716   -6.8201   -5.6754 C.3       2 UNK        -0.1931 
     34 N          26.6865   -5.6851   -3.7647 N.am      2 UNK        -0.4546 
     35 C          26.8562   -5.3170   -2.4863 C.2       1 UNK         0.5154 
     36 O          25.9177   -5.1163   -1.7136 O.2       1 UNK        -0.5181 
     37 C          28.7114    3.0410   -6.8143 C.2       5 UNK         0.5014 
     38 O          29.2644    2.9602   -7.9102 O.2       5 UNK        -0.5248 
     39 N          28.0035    4.1084   -6.4186 N.am      6 UNK        -0.4434 
     40 CA         27.7290    5.2787   -7.2551 C.3       6 UNK         0.0363 
     41 CB         27.1334    6.3952   -6.3826 C.3       6 UNK        -0.1936 
     42 C          26.8007    4.9745   -8.4468 C.2       6 UNK         0.5081 
     43 O          26.9018    5.6519   -9.4698 O.2       6 UNK        -0.5248 
     44 N          25.9213    3.9732   -8.3011 N.am      7 UNK        -0.4718 
     45 CA         25.0220    3.5032   -9.3553 C.3       7 UNK         0.0273 
     46 CB         23.6910    3.0512   -8.7308 C.3       7 UNK        -0.1935 
     47 C          25.6616    2.3608  -10.1569 C.2       7 UNK         0.5018 
     48 O          25.5648    2.3560  -11.3845 O.2       7 UNK        -0.5186 
     49 N          26.3019    1.4164   -9.4526 N.am      8 UNK        -0.4240 
     50 CA         26.9474    0.2368  -10.0355 C.3       8 UNK         0.0235 
     51 CB         27.1942   -0.7969   -8.9256 C.3       8 UNK        -0.2000 
     52 C          28.2564    0.5405  -10.7868 C.2       8 UNK         0.4941 
     53 O          28.6424   -0.2526  -11.6458 O.2       8 UNK        -0.5273 
     54 N          28.9207    1.6539  -10.4391 N.am      9 UNK        -0.4262 
     55 CA         30.2232    2.1190  -10.9379 C.3       9 UNK         0.0264 
     56 CB         30.1811    2.3958  -12.4562 C.3       9 UNK        -0.1955 
     57 C          31.4035    1.2141  -10.5240 C.2       9 UNK         0.5031 
     58 O          32.4601    1.2627  -11.1570 O.2       9 UNK        -0.5390 
     59 N          31.2158    0.4237   -9.4613 N.am      10 UNK        -0.4204 
     60 CA         32.1694   -0.5128   -8.8754 C.3       10 UNK         0.0237 
     61 CB         32.3651   -1.7315   -9.8000 C.3       10 UNK        -0.1985 
     62 C          31.6213   -0.9523   -7.5129 C.2       10 UNK         0.4970 
     63 O          30.4241   -0.7988   -7.2626 O.2       10 UNK        -0.4914 
     64 N          32.4960   -1.5107   -6.6703 N.am      11 UNK        -0.4285 
     65 CA         32.1537   -2.0502   -5.3412 C.3       11 UNK         0.1007 
     66 C          31.3075   -3.3583   -5.3697 C.2       11 UNK         0.5703 
     67 N          31.1647   -4.0380   -6.5019 N.am      11 UNK        -0.7361 
     68 O          30.7658   -3.7645   -4.3455 O.2       11 UNK        -0.4986 
     69 C69        33.4204   -2.2313   -4.4633 C.3       12 UNK        -0.0947 
     70 S70        34.3260   -0.6637   -4.2201 S.3       12 UNK        -0.2240 
     71 C71        34.1927   -0.4085   -2.4211 C.3       12 UNK         0.0194 
     72 H72        31.2128   -6.4896   -4.4182 H         1 UNK         0.0906 
     73 H73        31.3877   -8.0501   -3.6190 H         1 UNK         0.0906 
     74 H74        30.2504   -7.8692   -4.9576 H         1 UNK         0.0906 
     75 H75        29.8580   -5.0192   -3.3871 H         1 UNK         0.3140 
     76 H76        28.3276   -5.8281   -1.0672 H         1 UNK         0.1085 
     77 H77        28.7686   -3.0919   -2.3701 H         1 UNK         0.0836 
     78 H78        27.8520   -3.3372   -0.8975 H         1 UNK         0.0836 
     79 H79        29.1764   -1.8006    0.4699 H         1 UNK         0.0731 
     80 H80        30.7672   -2.1059    1.1151 H         1 UNK         0.0731 
     81 H81        32.6987   -2.0848   -0.8709 H         1 UNK         0.1312 
     82 H82        32.5195    1.6716   -2.9143 H         1 UNK         0.1406 
     83 H83        29.0838    0.2121   -0.7886 H         1 UNK         0.1631 
     84 H84        28.8284    2.0804   -2.3005 H         1 UNK         0.0717 
     85 H85        30.0194    3.0545   -1.4792 H         1 UNK         0.0717 
     86 H86        30.9447    1.7788   -5.7623 H         1 UNK         0.0934 
     87 H87        30.1693    0.7979   -4.5679 H         1 UNK         0.0934 
     88 H88        28.7479    0.9589   -6.5030 H         1 UNK         0.0739 
     89 H89        27.7821    1.6689   -3.9959 H         1 UNK         0.3093 
     90 H90        25.7528    1.1633   -3.3727 H         1 UNK         0.0818 
     91 H91        23.5092    2.2345   -3.5535 H         1 UNK         0.0819 
     92 H92        24.7547    3.3382   -4.1117 H         1 UNK         0.0819 
     93 H93        23.7469    2.4980   -5.2810 H         1 UNK         0.0819 
     94 H94        23.6354    0.0491   -4.9569 H         1 UNK         0.3041 
     95 H95        23.3666   -2.3905   -4.4428 H         1 UNK         0.0784 
     96 H96        23.4858   -1.3869   -6.7897 H         1 UNK         0.0793 
     97 H97        24.8616   -2.4257   -7.1374 H         1 UNK         0.0793 
     98 H98        23.2779   -3.1265   -6.8288 H         1 UNK         0.0793 
     99 H99        25.9944   -3.5346   -4.5650 H         1 UNK         0.3024 
    100 H100       24.8843   -6.7224   -3.6811 H         1 UNK         0.1171 
    101 H101       24.7383   -7.1410   -6.1406 H         1 UNK         0.0786 
    102 H102       26.2643   -7.7168   -5.4929 H         1 UNK         0.0786 
    103 H103       26.2038   -6.2061   -6.4032 H         1 UNK         0.0786 
    104 H104       27.5165   -5.8286   -4.3219 H         1 UNK         0.2977 
    105 H105       27.5976    4.0987   -5.4946 H         1 UNK         0.3127 
    106 H106       28.6794    5.6314   -7.6618 H         1 UNK         0.0770 
    107 H107       26.1852    6.0961   -5.9340 H         1 UNK         0.0814 
    108 H108       26.9448    7.2924   -6.9740 H         1 UNK         0.0814 
    109 H109       27.8135    6.6771   -5.5785 H         1 UNK         0.0814 
    110 H110       25.9394    3.4237   -7.4499 H         1 UNK         0.2983 
    111 H111       24.8065    4.3197  -10.0486 H         1 UNK         0.0947 
    112 H112       22.9951    2.7147   -9.5005 H         1 UNK         0.0806 
    113 H113       23.2091    3.8681   -8.1936 H         1 UNK         0.0806 
    114 H114       23.8261    2.2253   -8.0313 H         1 UNK         0.0806 
    115 H115       26.2814    1.4737   -8.4357 H         1 UNK         0.3000 
    116 H116       26.2555   -0.2017  -10.7579 H         1 UNK         0.0850 
    117 H117       27.6377   -1.7088   -9.3276 H         1 UNK         0.0810 
    118 H118       26.2629   -1.0758   -8.4351 H         1 UNK         0.0810 
    119 H119       27.8699   -0.4162   -8.1608 H         1 UNK         0.0810 
    120 H120       28.5567    2.2003   -9.6649 H         1 UNK         0.3040 
    121 H121       30.4008    3.0743  -10.4418 H         1 UNK         0.0766 
    122 H122       31.0880    2.9039  -12.7858 H         1 UNK         0.0812 
    123 H123       29.3388    3.0356  -12.7196 H         1 UNK         0.0812 
    124 H124       30.0990    1.4756  -13.0351 H         1 UNK         0.0812 
    125 H125       30.3344    0.4693   -8.9639 H         1 UNK         0.3205 
    126 H126       33.1211    0.0005   -8.7240 H         1 UNK         0.0754 
    127 H127       33.0562   -2.4537   -9.3638 H         1 UNK         0.0769 
    128 H128       32.7788   -1.4401  -10.7654 H         1 UNK         0.0769 
    129 H129       31.4224   -2.2484   -9.9856 H         1 UNK         0.0769 
    130 H130       33.4624   -1.6020   -6.9463 H         1 UNK         0.2981 
    131 H131       31.5223   -1.3095   -4.8465 H         1 UNK         0.0541 
    132 H132       31.6008   -3.7149   -7.3493 H         1 UNK         0.3459 
    133 H133       30.6071   -4.8758   -6.5104 H         1 UNK         0.3459 
    134 H134       34.1013   -2.9497   -4.9228 H         1 UNK         0.0612 
    135 H135       33.1587   -2.6476   -3.4891 H         1 UNK         0.0612 
    136 H136       34.6667   -1.2467   -1.9078 H         1 UNK         0.0624 
    137 H137       34.7649    0.4796   -2.1496 H         1 UNK         0.0624 
@<TRIPOS>BOND
     1    1    2 1    
     2    1   72 1    
     3    1   73 1    
     4    1   74 1    
     5    2    3 2    
     6    2    4 am   BACKBONE|DICT|INTERRES
     7    4    5 1    
     8    4   75 1    
     9    5    6 1    
    10    5   35 1    
    11    5   76 1    
    12    6    7 1    
    13    6   77 1    
    14    6   78 1    
    15    7    8 1    
    16    8    9 1    
    17    8   79 1    
    18    8   80 1    
    19    9   10 ar   
    20    9   14 ar   
    21   10   11 ar   
    22   10   81 1    
    23   11   12 ar   
    24   11   71 1    
    25   12   13 ar   
    26   12   82 1    
    27   13   14 ar   
    28   13   15 1    
    29   14   83 1    
    30   15   16 1    
    31   15   84 1    
    32   15   85 1    
    33   16   17 1    
    34   17   18 1    
    35   17   86 1    
    36   17   87 1    
    37   18   19 1    
    38   18   37 1    
    39   18   88 1    
    40   19   20 am   BACKBONE|DICT|INTERRES
    41   19   89 1    
    42   20   21 2    
    43   20   22 1    
    44   22   23 1    
    45   22   24 1    
    46   22   90 1    
    47   23   91 1    
    48   23   92 1    
    49   23   93 1    
    50   24   25 am   BACKBONE|DICT|INTERRES
    51   24   94 1    
    52   25   26 2    
    53   25   27 1    
    54   27   28 1    
    55   27   29 1    
    56   27   95 1    
    57   28   96 1    
    58   28   97 1    
    59   28   98 1    
    60   29   30 am   BACKBONE|DICT|INTERRES
    61   29   99 1    
    62   30   31 2    
    63   30   32 1    
    64   32   33 1    
    65   32   34 1    
    66   32  100 1    
    67   33  101 1    
    68   33  102 1    
    69   33  103 1    
    70   34   35 am   BACKBONE|DICT|INTERRES
    71   34  104 1    
    72   35   36 2    
    73   37   38 2    
    74   37   39 am   BACKBONE|DICT|INTERRES
    75   39   40 1    
    76   39  105 1    
    77   40   41 1    
    78   40   42 1    
    79   40  106 1    
    80   41  107 1    
    81   41  108 1    
    82   41  109 1    
    83   42   43 2    
    84   42   44 am   BACKBONE|DICT|INTERRES
    85   44   45 1    
    86   44  110 1    
    87   45   46 1    
    88   45   47 1    
    89   45  111 1    
    90   46  112 1    
    91   46  113 1    
    92   46  114 1    
    93   47   48 2    
    94   47   49 am   BACKBONE|DICT|INTERRES
    95   49   50 1    
    96   49  115 1    
    97   50   51 1    
    98   50   52 1    
    99   50  116 1    
   100   51  117 1    
   101   51  118 1    
   102   51  119 1    
   103   52   53 2    
   104   52   54 am   BACKBONE|DICT|INTERRES
   105   54   55 1    
   106   54  120 1    
   107   55   56 1    
   108   55   57 1    
   109   55  121 1    
   110   56  122 1    
   111   56  123 1    
   112   56  124 1    
   113   57   58 2    
   114   57   59 am   BACKBONE|DICT|INTERRES
   115   59   60 1    
   116   59  125 1    
   117   60   61 1    
   118   60   62 1    
   119   60  126 1    
   120   61  127 1    
   121   61  128 1    
   122   61  129 1    
   123   62   63 2    
   124   62   64 am   BACKBONE|DICT|INTERRES
   125   64   65 1    
   126   64  130 1    
   127   65   66 1    
   128   65   69 1    
   129   65  131 1    
   130   66   67 am   BACKBONE|DICT|INTERRES
   131   66   68 2    
   132   67  132 1    
   133   67  133 1    
   134   69   70 1    
   135   69  134 1    
   136   69  135 1    
   137   70   71 1    
   138   71  136 1    
   139   71  137 1    
@<TRIPOS>SUBSTRUCTURE
     1 UNK         1 GROUP             0       ****    0 ROOT    
