@<TRIPOS>MOLECULE
3R137
137   139    1
SMALL
USER_CHARGES


@<TRIPOS>ATOM
      1 CA         28.2148   -7.9589   -3.0013 C.3       0 UNK        -0.2020 
      2 C          27.6395   -6.7213   -2.3289 C.2       0 UNK         0.4855 
      3 O          26.5260   -6.7711   -1.8048 O.2       0 UNK        -0.5197 
      4 N          28.3923   -5.6141   -2.3320 N.am      1 UNK        -0.4892 
      5 CA         27.9635   -4.3137   -1.8082 C.3       1 UNK         0.0835 
      6 C6         29.1848   -3.4069   -1.5320 C.3       12 UNK        -0.0855 
      7 S7         28.8108   -2.0290   -0.3958 S.3       12 UNK        -0.2931 
      8 C8         30.4843   -1.3935   -0.0544 C.3       12 UNK         0.0378 
      9 C9         31.1145   -0.8015   -1.3056 C.ar      12 UNK        -0.0802 
     10 C10        31.9984   -1.5615   -2.0757 C.ar      12 UNK        -0.0944 
     11 C11        32.5280   -1.0488   -3.2624 C.ar      12 UNK        -0.0787 
     12 C12        32.1834    0.2483   -3.6587 C.ar      12 UNK        -0.0862 
     13 C13        31.3170    1.0339   -2.8884 C.ar      12 UNK        -0.0733 
     14 C14        30.7934    0.4989   -1.7041 C.ar      12 UNK        -0.0832 
     15 C15        31.0044    2.4523   -3.3743 C.3       12 UNK         0.0240 
     16 S16        29.6466    3.3458   -2.5257 S.3       12 UNK        -0.2522 
     17 C17        28.1453    2.4018   -2.9641 C.3       12 UNK        -0.0967 
     18 CA         27.8926    2.3020   -4.4957 C.3       5 UNK         0.0660 
     19 N          27.9729    0.9161   -4.9490 N.am      5 UNK        -0.4015 
     20 C          28.8135    0.4629   -5.8846 C.2       4 UNK         0.4946 
     21 O          29.6174    1.1635   -6.4992 O.2       4 UNK        -0.5353 
     22 CA         28.7159   -1.0318   -6.2324 C.3       4 UNK         0.0277 
     23 CB         29.5744   -1.8421   -5.2611 C.3       4 UNK        -0.1981 
     24 N          27.3482   -1.5516   -6.2202 N.am      4 UNK        -0.4209 
     25 C          26.3287   -1.0266   -6.9145 C.2       3 UNK         0.4942 
     26 O          26.4615   -0.1114   -7.7281 O.2       3 UNK        -0.5208 
     27 CA         24.9150   -1.5472   -6.6071 C.3       3 UNK         0.0250 
     28 CB         24.4926   -2.5782   -7.6646 C.3       3 UNK        -0.1990 
     29 N          24.7374   -2.1267   -5.2693 N.am      3 UNK        -0.4232 
     30 C          25.0560   -1.5738   -4.0875 C.2       2 UNK         0.4993 
     31 O          25.5940   -0.4706   -3.9641 O.2       2 UNK        -0.5286 
     32 CA         24.7513   -2.4031   -2.8262 C.3       2 UNK         0.0209 
     33 CB         23.7227   -3.5330   -3.0599 C.3       2 UNK        -0.1931 
     34 N          25.9539   -2.9584   -2.1903 N.am      2 UNK        -0.4546 
     35 C          26.9409   -3.6621   -2.7675 C.2       1 UNK         0.5154 
     36 O          27.0613   -3.8200   -3.9871 O.2       1 UNK        -0.5181 
     37 C          26.5479    2.9255   -4.9162 C.2       5 UNK         0.5014 
     38 O          26.5369    4.0793   -5.3448 O.2       5 UNK        -0.5248 
     39 N          25.4434    2.1678   -4.8193 N.am      6 UNK        -0.4434 
     40 CA         24.0855    2.6421   -5.1118 C.3       6 UNK         0.0363 
     41 CB         23.0563    1.6344   -4.5745 C.3       6 UNK        -0.1936 
     42 C          23.8299    2.9337   -6.6007 C.2       6 UNK         0.5081 
     43 O          23.0919    3.8703   -6.9067 O.2       6 UNK        -0.5248 
     44 N          24.4457    2.1467   -7.4931 N.am      7 UNK        -0.4718 
     45 CA         24.4046    2.3373   -8.9482 C.3       7 UNK         0.0273 
     46 CB         23.8842    1.0490   -9.6115 C.3       7 UNK        -0.1935 
     47 C          25.7843    2.7356   -9.5056 C.2       7 UNK         0.5018 
     48 O          25.9298    2.8452  -10.7236 O.2       7 UNK        -0.5186 
     49 N          26.7627    2.9440   -8.6100 N.am      8 UNK        -0.4240 
     50 CA         28.1581    3.3138   -8.8640 C.3       8 UNK         0.0235 
     51 CB         28.2438    4.7562   -9.4072 C.3       8 UNK        -0.2000 
     52 C          28.9265    2.2977   -9.7343 C.2       8 UNK         0.4941 
     53 O          29.7876    2.7011  -10.5188 O.2       8 UNK        -0.5273 
     54 N          28.6273    0.9973   -9.5783 N.am      9 UNK        -0.4262 
     55 CA         29.3092   -0.0892  -10.2952 C.3       9 UNK         0.0264 
     56 CB         28.4541   -1.3670  -10.2418 C.3       9 UNK        -0.1955 
     57 C          30.7563   -0.3502   -9.8221 C.2       9 UNK         0.5031 
     58 O          31.4895   -1.0579  -10.5152 O.2       9 UNK        -0.5390 
     59 N          31.1458    0.2100   -8.6643 N.am      10 UNK        -0.4204 
     60 CA         32.4983    0.2580   -8.0915 C.3       10 UNK         0.0237 
     61 CB         33.3921    1.1941   -8.9320 C.3       10 UNK        -0.1985 
     62 C          33.1506   -1.1175   -7.8496 C.2       10 UNK         0.4970 
     63 O          34.3783   -1.2185   -7.8749 O.2       10 UNK        -0.4914 
     64 N          32.3220   -2.1455   -7.6206 N.am      11 UNK        -0.4285 
     65 CA         32.7151   -3.5583   -7.4769 C.3       11 UNK         0.1007 
     66 C          33.3182   -4.1845   -8.7739 C.2       11 UNK         0.5703 
     67 N          33.1071   -3.6036   -9.9511 N.am      11 UNK        -0.7361 
     68 O          33.9575   -5.2330   -8.7243 O.2       11 UNK        -0.4986 
     69 C69        33.5686   -3.8329   -6.2007 C.3       12 UNK        -0.0947 
     70 S70        32.6605   -3.4403   -4.6681 S.3       12 UNK        -0.2240 
     71 C71        33.4625   -1.8974   -4.1184 C.3       12 UNK         0.0194 
     72 H72        27.5673   -8.2763   -3.8183 H         1 UNK         0.0906 
     73 H73        29.2096   -7.7778   -3.4081 H         1 UNK         0.0906 
     74 H74        28.2855   -8.7769   -2.2848 H         1 UNK         0.0906 
     75 H75        29.2794   -5.6208   -2.8150 H         1 UNK         0.3140 
     76 H76        27.4618   -4.5041   -0.8562 H         1 UNK         0.1085 
     77 H77        29.6067   -3.0236   -2.4605 H         1 UNK         0.0836 
     78 H78        29.9779   -3.9953   -1.0671 H         1 UNK         0.0836 
     79 H79        31.1056   -2.1939    0.3509 H         1 UNK         0.0731 
     80 H80        30.4234   -0.6311    0.7237 H         1 UNK         0.0731 
     81 H81        32.2518   -2.5673   -1.7693 H         1 UNK         0.1312 
     82 H82        32.5922    0.6527   -4.5744 H         1 UNK         0.1406 
     83 H83        30.1239    1.0797   -1.0864 H         1 UNK         0.1631 
     84 H84        31.9097    3.0483   -3.2527 H         1 UNK         0.0717 
     85 H85        30.8065    2.4338   -4.4456 H         1 UNK         0.0717 
     86 H86        28.2148    1.4122   -2.5095 H         1 UNK         0.0934 
     87 H87        27.3127    2.8808   -2.4442 H         1 UNK         0.0934 
     88 H88        28.6432    2.8970   -5.0187 H         1 UNK         0.0739 
     89 H89        27.3096    0.2668   -4.5360 H         1 UNK         0.3093 
     90 H90        29.1147   -1.1688   -7.2349 H         1 UNK         0.0818 
     91 H91        30.6110   -1.5137   -5.3117 H         1 UNK         0.0819 
     92 H92        29.5543   -2.9082   -5.4881 H         1 UNK         0.0819 
     93 H93        29.2429   -1.7055   -4.2323 H         1 UNK         0.0819 
     94 H94        27.1499   -2.3019   -5.5660 H         1 UNK         0.3041 
     95 H95        24.2391   -0.6947   -6.6805 H         1 UNK         0.0784 
     96 H96        24.6006   -2.1748   -8.6726 H         1 UNK         0.0793 
     97 H97        25.0994   -3.4830   -7.6101 H         1 UNK         0.0793 
     98 H98        23.4477   -2.8655   -7.5451 H         1 UNK         0.0793 
     99 H99        24.3390   -3.0543   -5.2443 H         1 UNK         0.3024 
    100 H100       24.3143   -1.7020   -2.1130 H         1 UNK         0.1171 
    101 H101       23.4315   -3.9927   -2.1152 H         1 UNK         0.0786 
    102 H102       22.8092   -3.1521   -3.5195 H         1 UNK         0.0786 
    103 H103       24.1159   -4.3264   -3.6971 H         1 UNK         0.0786 
    104 H104       26.0054   -2.8248   -1.1895 H         1 UNK         0.2977 
    105 H105       25.5170    1.2189   -4.4528 H         1 UNK         0.3127 
    106 H106       23.9442    3.5805   -4.5708 H         1 UNK         0.0770 
    107 H107       23.1892    1.4617   -3.5064 H         1 UNK         0.0814 
    108 H108       23.1250    0.6722   -5.0809 H         1 UNK         0.0814 
    109 H109       22.0399    2.0036   -4.7181 H         1 UNK         0.0814 
    110 H110       25.0430    1.3957   -7.1691 H         1 UNK         0.2983 
    111 H111       23.7207    3.1479   -9.2083 H         1 UNK         0.0947 
    112 H112       23.7424    1.1933  -10.6833 H         1 UNK         0.0806 
    113 H113       22.9221    0.7486   -9.1966 H         1 UNK         0.0806 
    114 H114       24.5778    0.2179   -9.4888 H         1 UNK         0.0806 
    115 H115       26.5113    2.8478   -7.6371 H         1 UNK         0.3000 
    116 H116       28.6526    3.3041   -7.8915 H         1 UNK         0.0850 
    117 H117       29.2798    5.0917   -9.4690 H         1 UNK         0.0810 
    118 H118       27.7177    5.4560   -8.7578 H         1 UNK         0.0810 
    119 H119       27.8153    4.8375  -10.4067 H         1 UNK         0.0810 
    120 H120       27.8891    0.7343   -8.9315 H         1 UNK         0.3040 
    121 H121       29.3804    0.2058  -11.3444 H         1 UNK         0.0766 
    122 H122       27.4619   -1.1937  -10.6591 H         1 UNK         0.0812 
    123 H123       28.3238   -1.7418   -9.2290 H         1 UNK         0.0812 
    124 H124       28.9130   -2.1664  -10.8252 H         1 UNK         0.0812 
    125 H125       30.4503    0.7196   -8.1219 H         1 UNK         0.3205 
    126 H126       32.3869    0.7099   -7.1050 H         1 UNK         0.0754 
    127 H127       34.3539    1.3647   -8.4466 H         1 UNK         0.0769 
    128 H128       32.9242    2.1691   -9.0698 H         1 UNK         0.0769 
    129 H129       33.5932    0.7772   -9.9195 H         1 UNK         0.0769 
    130 H130       31.3307   -1.9699   -7.6442 H         1 UNK         0.2981 
    131 H131       31.7762   -4.0974   -7.3465 H         1 UNK         0.0541 
    132 H132       32.5774   -2.7418  -10.0254 H         1 UNK         0.3459 
    133 H133       33.4918   -4.0257  -10.7808 H         1 UNK         0.3459 
    134 H134       33.8320   -4.8899   -6.1389 H         1 UNK         0.0612 
    135 H135       34.5151   -3.2918   -6.2295 H         1 UNK         0.0612 
    136 H136       33.7966   -1.3304   -4.9873 H         1 UNK         0.0624 
    137 H137       34.3578   -2.1440   -3.5466 H         1 UNK         0.0624 
@<TRIPOS>BOND
     1    1    2 1    
     2    1   72 1    
     3    1   73 1    
     4    1   74 1    
     5    2    3 2    
     6    2    4 am   BACKBONE|DICT|INTERRES
     7    4    5 1    
     8    4   75 1    
     9    5    6 1    
    10    5   35 1    
    11    5   76 1    
    12    6    7 1    
    13    6   77 1    
    14    6   78 1    
    15    7    8 1    
    16    8    9 1    
    17    8   79 1    
    18    8   80 1    
    19    9   10 ar   
    20    9   14 ar   
    21   10   11 ar   
    22   10   81 1    
    23   11   12 ar   
    24   11   71 1    
    25   12   13 ar   
    26   12   82 1    
    27   13   14 ar   
    28   13   15 1    
    29   14   83 1    
    30   15   16 1    
    31   15   84 1    
    32   15   85 1    
    33   16   17 1    
    34   17   18 1    
    35   17   86 1    
    36   17   87 1    
    37   18   19 1    
    38   18   37 1    
    39   18   88 1    
    40   19   20 am   BACKBONE|DICT|INTERRES
    41   19   89 1    
    42   20   21 2    
    43   20   22 1    
    44   22   23 1    
    45   22   24 1    
    46   22   90 1    
    47   23   91 1    
    48   23   92 1    
    49   23   93 1    
    50   24   25 am   BACKBONE|DICT|INTERRES
    51   24   94 1    
    52   25   26 2    
    53   25   27 1    
    54   27   28 1    
    55   27   29 1    
    56   27   95 1    
    57   28   96 1    
    58   28   97 1    
    59   28   98 1    
    60   29   30 am   BACKBONE|DICT|INTERRES
    61   29   99 1    
    62   30   31 2    
    63   30   32 1    
    64   32   33 1    
    65   32   34 1    
    66   32  100 1    
    67   33  101 1    
    68   33  102 1    
    69   33  103 1    
    70   34   35 am   BACKBONE|DICT|INTERRES
    71   34  104 1    
    72   35   36 2    
    73   37   38 2    
    74   37   39 am   BACKBONE|DICT|INTERRES
    75   39   40 1    
    76   39  105 1    
    77   40   41 1    
    78   40   42 1    
    79   40  106 1    
    80   41  107 1    
    81   41  108 1    
    82   41  109 1    
    83   42   43 2    
    84   42   44 am   BACKBONE|DICT|INTERRES
    85   44   45 1    
    86   44  110 1    
    87   45   46 1    
    88   45   47 1    
    89   45  111 1    
    90   46  112 1    
    91   46  113 1    
    92   46  114 1    
    93   47   48 2    
    94   47   49 am   BACKBONE|DICT|INTERRES
    95   49   50 1    
    96   49  115 1    
    97   50   51 1    
    98   50   52 1    
    99   50  116 1    
   100   51  117 1    
   101   51  118 1    
   102   51  119 1    
   103   52   53 2    
   104   52   54 am   BACKBONE|DICT|INTERRES
   105   54   55 1    
   106   54  120 1    
   107   55   56 1    
   108   55   57 1    
   109   55  121 1    
   110   56  122 1    
   111   56  123 1    
   112   56  124 1    
   113   57   58 2    
   114   57   59 am   BACKBONE|DICT|INTERRES
   115   59   60 1    
   116   59  125 1    
   117   60   61 1    
   118   60   62 1    
   119   60  126 1    
   120   61  127 1    
   121   61  128 1    
   122   61  129 1    
   123   62   63 2    
   124   62   64 am   BACKBONE|DICT|INTERRES
   125   64   65 1    
   126   64  130 1    
   127   65   66 1    
   128   65   69 1    
   129   65  131 1    
   130   66   67 am   BACKBONE|DICT|INTERRES
   131   66   68 2    
   132   67  132 1    
   133   67  133 1    
   134   69   70 1    
   135   69  134 1    
   136   69  135 1    
   137   70   71 1    
   138   71  136 1    
   139   71  137 1    
@<TRIPOS>SUBSTRUCTURE
     1 UNK         1 GROUP             0       ****    0 ROOT    
