@<TRIPOS>MOLECULE
3R137
137   139    1
SMALL
USER_CHARGES


@<TRIPOS>ATOM
      1 CA         26.8598   -6.9727   -1.9747 C.3       0 UNK        -0.2020 
      2 C          26.6838   -5.8661   -0.9458 C.2       0 UNK         0.4855 
      3 O          25.8630   -5.9979   -0.0380 O.2       0 UNK        -0.5197 
      4 N          27.4450   -4.7725   -1.0833 N.am      1 UNK        -0.4892 
      5 CA         27.4273   -3.6154   -0.1731 C.3       1 UNK         0.0835 
      6 C6         28.7615   -2.8261   -0.2021 C.3       12 UNK        -0.0855 
      7 S7         30.2024   -3.8996    0.1372 S.3       12 UNK        -0.2931 
      8 C8         31.5230   -3.1196   -0.8564 C.3       12 UNK         0.0378 
      9 C9         31.2125   -2.9817   -2.3468 C.ar      12 UNK        -0.0802 
     10 C10        31.6817   -1.8605   -3.0356 C.ar      12 UNK        -0.0944 
     11 C11        31.4230   -1.7007   -4.3984 C.ar      12 UNK        -0.0787 
     12 C12        30.6703   -2.6641   -5.0750 C.ar      12 UNK        -0.0862 
     13 C13        30.1812   -3.7897   -4.4007 C.ar      12 UNK        -0.0733 
     14 C14        30.4840   -3.9529   -3.0445 C.ar      12 UNK        -0.0832 
     15 C15        29.3554   -4.8642   -5.1083 C.3       12 UNK         0.0240 
     16 S16        28.3170   -4.2717   -6.4888 S.3       12 UNK        -0.2522 
     17 C17        27.1280   -3.1554   -5.6653 C.3       12 UNK        -0.0967 
     18 CA         26.7891   -1.9457   -6.5740 C.3       5 UNK         0.0660 
     19 N          25.4526   -1.3937   -6.3301 N.am      5 UNK        -0.4015 
     20 C          24.8101   -0.5866   -7.1907 C.2       4 UNK         0.4946 
     21 O          25.2556   -0.2774   -8.2955 O.2       4 UNK        -0.5353 
     22 CA         23.4574   -0.0057   -6.7455 C.3       4 UNK         0.0277 
     23 CB         22.3215   -1.0000   -7.0346 C.3       4 UNK        -0.1981 
     24 N          23.4417    0.3609   -5.3295 N.am      4 UNK        -0.4209 
     25 C          24.1290    1.3845   -4.8010 C.2       3 UNK         0.4942 
     26 O          24.7586    2.2035   -5.4671 O.2       3 UNK        -0.5208 
     27 CA         24.1391    1.5002   -3.2654 C.3       3 UNK         0.0250 
     28 CB         23.0587    2.4867   -2.7938 C.3       3 UNK        -0.1990 
     29 N          23.9639    0.2183   -2.5724 N.am      3 UNK        -0.4232 
     30 C          24.7883   -0.8330   -2.6770 C.2       2 UNK         0.4993 
     31 O          25.8001   -0.8510   -3.3855 O.2       2 UNK        -0.5286 
     32 CA         24.3448   -2.1084   -1.9497 C.3       2 UNK         0.0209 
     33 CB         23.4655   -2.9658   -2.8760 C.3       2 UNK        -0.1931 
     34 N          25.4959   -2.9023   -1.5307 N.am      2 UNK        -0.4546 
     35 C          26.2286   -2.6750   -0.4325 C.2       1 UNK         0.5154 
     36 O          25.9849   -1.7706    0.3684 O.2       1 UNK        -0.5181 
     37 C          27.8460   -0.8309   -6.4970 C.2       5 UNK         0.5014 
     38 O          28.6595   -0.7034   -7.4135 O.2       5 UNK        -0.5248 
     39 N          27.7362    0.0321   -5.4756 N.am      6 UNK        -0.4434 
     40 CA         28.5007    1.2752   -5.3073 C.3       6 UNK         0.0363 
     41 CB         28.4121    1.7170   -3.8363 C.3       6 UNK        -0.1936 
     42 C          28.1061    2.3996   -6.2957 C.2       6 UNK         0.5081 
     43 O          28.1178    3.5758   -5.9293 O.2       6 UNK        -0.5248 
     44 N          27.7937    2.0210   -7.5372 N.am      7 UNK        -0.4718 
     45 CA         27.4298    2.8761   -8.6610 C.3       7 UNK         0.0273 
     46 CB         25.9703    3.3512   -8.5410 C.3       7 UNK        -0.1935 
     47 C          27.6682    2.1221   -9.9752 C.2       7 UNK         0.5018 
     48 O          28.2310    2.7018  -10.9043 O.2       7 UNK        -0.5186 
     49 N          27.2531    0.8455  -10.0313 N.am      8 UNK        -0.4240 
     50 CA         27.5000   -0.0559  -11.1600 C.3       8 UNK         0.0235 
     51 CB         26.6287   -1.3149  -11.0223 C.3       8 UNK        -0.2000 
     52 C          28.9814   -0.4418  -11.3070 C.2       8 UNK         0.4941 
     53 O          29.4800   -0.4832  -12.4332 O.2       8 UNK        -0.5273 
     54 N          29.6574   -0.7146  -10.1823 N.am      9 UNK        -0.4262 
     55 CA         31.0990   -0.9573  -10.1336 C.3       9 UNK         0.0264 
     56 CB         31.4191   -1.8280   -8.9088 C.3       9 UNK        -0.1955 
     57 C          31.8596    0.3750  -10.0574 C.2       9 UNK         0.5031 
     58 O          31.3038    1.3775   -9.6013 O.2       9 UNK        -0.5390 
     59 N          33.1399    0.3513  -10.4544 N.am      10 UNK        -0.4204 
     60 CA         34.0438    1.5111  -10.4737 C.3       10 UNK         0.0237 
     61 CB         35.3970    1.0892  -11.0696 C.3       10 UNK        -0.1985 
     62 C          34.2482    2.1927   -9.1063 C.2       10 UNK         0.4970 
     63 O          34.5233    3.3925   -9.0682 O.2       10 UNK        -0.4914 
     64 N          34.0927    1.4266   -8.0201 N.am      11 UNK        -0.4285 
     65 CA         34.0480    1.9173   -6.6368 C.3       11 UNK         0.1007 
     66 C          32.7416    2.6732   -6.2455 C.2       11 UNK         0.5703 
     67 N          31.6972    2.7002   -7.0655 N.am      11 UNK        -0.7361 
     68 O          32.6809    3.2641   -5.1703 O.2       11 UNK        -0.4986 
     69 C69        34.4231    0.8047   -5.6174 C.3       12 UNK        -0.0947 
     70 S70        33.5828   -0.7998   -5.8641 S.3       12 UNK        -0.2240 
     71 C71        31.9532   -0.4796   -5.1291 C.3       12 UNK         0.0194 
     72 H72        27.0092   -7.9291   -1.4742 H         1 UNK         0.0906 
     73 H73        25.9698   -7.0507   -2.5986 H         1 UNK         0.0906 
     74 H74        27.7177   -6.7968   -2.6225 H         1 UNK         0.0906 
     75 H75        28.1114   -4.7166   -1.8377 H         1 UNK         0.3140 
     76 H76        27.2969   -3.9930    0.8439 H         1 UNK         0.1085 
     77 H77        28.8829   -2.3270   -1.1650 H         1 UNK         0.0836 
     78 H78        28.7533   -2.0330    0.5483 H         1 UNK         0.0836 
     79 H79        31.7334   -2.1401   -0.4237 H         1 UNK         0.0731 
     80 H80        32.4352   -3.7072   -0.7458 H         1 UNK         0.0731 
     81 H81        32.2595   -1.1103   -2.5126 H         1 UNK         0.1312 
     82 H82        30.4692   -2.5345   -6.1285 H         1 UNK         0.1406 
     83 H83        30.1490   -4.8399   -2.5260 H         1 UNK         0.1631 
     84 H84        28.7056   -5.3717   -4.3947 H         1 UNK         0.0717 
     85 H85        30.0393   -5.6210   -5.4944 H         1 UNK         0.0717 
     86 H86        26.2294   -3.7412   -5.4660 H         1 UNK         0.0934 
     87 H87        27.5007   -2.8362   -4.6895 H         1 UNK         0.0934 
     88 H88        26.7802   -2.3014   -7.6071 H         1 UNK         0.0739 
     89 H89        25.0716   -1.5278   -5.4044 H         1 UNK         0.3093 
     90 H90        23.2778    0.8981   -7.3322 H         1 UNK         0.0818 
     91 H91        21.3481   -0.5698   -6.7981 H         1 UNK         0.0819 
     92 H92        22.3043   -1.2734   -8.0907 H         1 UNK         0.0819 
     93 H93        22.4303   -1.9217   -6.4616 H         1 UNK         0.0819 
     94 H94        22.9187   -0.2355   -4.7059 H         1 UNK         0.3041 
     95 H95        25.1128    1.8986   -2.9757 H         1 UNK         0.0784 
     96 H96        23.1816    3.4583   -3.2750 H         1 UNK         0.0793 
     97 H97        22.0547    2.1315   -3.0297 H         1 UNK         0.0793 
     98 H98        23.1137    2.6524   -1.7177 H         1 UNK         0.0793 
     99 H99        23.1476    0.1389   -1.9822 H         1 UNK         0.3024 
    100 H100       23.7656   -1.8331   -1.0648 H         1 UNK         0.1171 
    101 H101       22.5713   -2.4232   -3.1857 H         1 UNK         0.0786 
    102 H102       23.1299   -3.8727   -2.3722 H         1 UNK         0.0786 
    103 H103       23.9971   -3.2650   -3.7804 H         1 UNK         0.0786 
    104 H104       25.7867   -3.6481   -2.1441 H         1 UNK         0.2977 
    105 H105       27.0235   -0.1520   -4.7741 H         1 UNK         0.3127 
    106 H106       29.5457    1.0572   -5.5150 H         1 UNK         0.0770 
    107 H107       27.3962    2.0056   -3.5681 H         1 UNK         0.0814 
    108 H108       29.0584    2.5744   -3.6442 H         1 UNK         0.0814 
    109 H109       28.7259    0.9196   -3.1622 H         1 UNK         0.0814 
    110 H110       27.9255    1.0376   -7.7527 H         1 UNK         0.2983 
    111 H111       28.0870    3.7485   -8.6566 H         1 UNK         0.0947 
    112 H112       25.6878    3.9673   -9.3954 H         1 UNK         0.0806 
    113 H113       25.8213    3.9516   -7.6433 H         1 UNK         0.0806 
    114 H114       25.2754    2.5121   -8.4950 H         1 UNK         0.0806 
    115 H115       26.6844    0.4712   -9.2743 H         1 UNK         0.3000 
    116 H116       27.2015    0.4632  -12.0733 H         1 UNK         0.0850 
    117 H117       26.7836   -1.9920  -11.8634 H         1 UNK         0.0810 
    118 H118       25.5684   -1.0622  -11.0005 H         1 UNK         0.0810 
    119 H119       26.8591   -1.8671  -10.1104 H         1 UNK         0.0810 
    120 H120       29.1916   -0.6258   -9.2833 H         1 UNK         0.3040 
    121 H121       31.4072   -1.4936  -11.0337 H         1 UNK         0.0766 
    122 H122       32.4726   -2.1087   -8.8850 H         1 UNK         0.0812 
    123 H123       30.8363   -2.7494   -8.9096 H         1 UNK         0.0812 
    124 H124       31.2036   -1.2986   -7.9823 H         1 UNK         0.0812 
    125 H125       33.5208   -0.5183  -10.8000 H         1 UNK         0.3205 
    126 H126       33.5968    2.2557  -11.1357 H         1 UNK         0.0754 
    127 H127       36.0821    1.9368  -11.1227 H         1 UNK         0.0769 
    128 H128       35.2832    0.7054  -12.0838 H         1 UNK         0.0769 
    129 H129       35.8800    0.3174  -10.4688 H         1 UNK         0.0769 
    130 H130       33.8662    0.4512   -8.1414 H         1 UNK         0.2981 
    131 H131       34.8289    2.6755   -6.5529 H         1 UNK         0.0541 
    132 H132       30.8840    3.2264   -6.7919 H         1 UNK         0.3459 
    133 H133       31.7073    2.2250   -7.9646 H         1 UNK         0.3459 
    134 H134       34.2792    1.1374   -4.5878 H         1 UNK         0.0612 
    135 H135       35.4925    0.6063   -5.7018 H         1 UNK         0.0612 
    136 H136       31.9993    0.3676   -4.4434 H         1 UNK         0.0624 
    137 H137       31.2744   -0.1962   -5.9317 H         1 UNK         0.0624 
@<TRIPOS>BOND
     1    1    2 1    
     2    1   72 1    
     3    1   73 1    
     4    1   74 1    
     5    2    3 2    
     6    2    4 am   BACKBONE|DICT|INTERRES
     7    4    5 1    
     8    4   75 1    
     9    5    6 1    
    10    5   35 1    
    11    5   76 1    
    12    6    7 1    
    13    6   77 1    
    14    6   78 1    
    15    7    8 1    
    16    8    9 1    
    17    8   79 1    
    18    8   80 1    
    19    9   10 ar   
    20    9   14 ar   
    21   10   11 ar   
    22   10   81 1    
    23   11   12 ar   
    24   11   71 1    
    25   12   13 ar   
    26   12   82 1    
    27   13   14 ar   
    28   13   15 1    
    29   14   83 1    
    30   15   16 1    
    31   15   84 1    
    32   15   85 1    
    33   16   17 1    
    34   17   18 1    
    35   17   86 1    
    36   17   87 1    
    37   18   19 1    
    38   18   37 1    
    39   18   88 1    
    40   19   20 am   BACKBONE|DICT|INTERRES
    41   19   89 1    
    42   20   21 2    
    43   20   22 1    
    44   22   23 1    
    45   22   24 1    
    46   22   90 1    
    47   23   91 1    
    48   23   92 1    
    49   23   93 1    
    50   24   25 am   BACKBONE|DICT|INTERRES
    51   24   94 1    
    52   25   26 2    
    53   25   27 1    
    54   27   28 1    
    55   27   29 1    
    56   27   95 1    
    57   28   96 1    
    58   28   97 1    
    59   28   98 1    
    60   29   30 am   BACKBONE|DICT|INTERRES
    61   29   99 1    
    62   30   31 2    
    63   30   32 1    
    64   32   33 1    
    65   32   34 1    
    66   32  100 1    
    67   33  101 1    
    68   33  102 1    
    69   33  103 1    
    70   34   35 am   BACKBONE|DICT|INTERRES
    71   34  104 1    
    72   35   36 2    
    73   37   38 2    
    74   37   39 am   BACKBONE|DICT|INTERRES
    75   39   40 1    
    76   39  105 1    
    77   40   41 1    
    78   40   42 1    
    79   40  106 1    
    80   41  107 1    
    81   41  108 1    
    82   41  109 1    
    83   42   43 2    
    84   42   44 am   BACKBONE|DICT|INTERRES
    85   44   45 1    
    86   44  110 1    
    87   45   46 1    
    88   45   47 1    
    89   45  111 1    
    90   46  112 1    
    91   46  113 1    
    92   46  114 1    
    93   47   48 2    
    94   47   49 am   BACKBONE|DICT|INTERRES
    95   49   50 1    
    96   49  115 1    
    97   50   51 1    
    98   50   52 1    
    99   50  116 1    
   100   51  117 1    
   101   51  118 1    
   102   51  119 1    
   103   52   53 2    
   104   52   54 am   BACKBONE|DICT|INTERRES
   105   54   55 1    
   106   54  120 1    
   107   55   56 1    
   108   55   57 1    
   109   55  121 1    
   110   56  122 1    
   111   56  123 1    
   112   56  124 1    
   113   57   58 2    
   114   57   59 am   BACKBONE|DICT|INTERRES
   115   59   60 1    
   116   59  125 1    
   117   60   61 1    
   118   60   62 1    
   119   60  126 1    
   120   61  127 1    
   121   61  128 1    
   122   61  129 1    
   123   62   63 2    
   124   62   64 am   BACKBONE|DICT|INTERRES
   125   64   65 1    
   126   64  130 1    
   127   65   66 1    
   128   65   69 1    
   129   65  131 1    
   130   66   67 am   BACKBONE|DICT|INTERRES
   131   66   68 2    
   132   67  132 1    
   133   67  133 1    
   134   69   70 1    
   135   69  134 1    
   136   69  135 1    
   137   70   71 1    
   138   71  136 1    
   139   71  137 1    
@<TRIPOS>SUBSTRUCTURE
     1 UNK         1 GROUP             0       ****    0 ROOT    
