@<TRIPOS>MOLECULE
3R137
137   139    1
SMALL
USER_CHARGES


@<TRIPOS>ATOM
      1 CA         30.6851   -4.0243   -0.6852 C.3       0 UNK        -0.2020 
      2 C          29.4007   -4.2690   -1.4629 C.2       0 UNK         0.4855 
      3 O          28.7052   -5.2509   -1.2042 O.2       0 UNK        -0.5197 
      4 N          29.0860   -3.3789   -2.4124 N.am      1 UNK        -0.4892 
      5 CA         27.9254   -3.4356   -3.3130 C.3       1 UNK         0.0835 
      6 C6         27.9774   -4.6423   -4.3028 C.3       12 UNK        -0.0855 
      7 S7         28.0262   -4.1017   -6.0494 S.3       12 UNK        -0.2931 
      8 C8         29.8206   -4.0454   -6.4005 C.3       12 UNK         0.0378 
      9 C9         30.5830   -3.1015   -5.4755 C.ar      12 UNK        -0.0802 
     10 C10        31.7217   -3.5476   -4.7993 C.ar      12 UNK        -0.0944 
     11 C11        32.3941   -2.7111   -3.9019 C.ar      12 UNK        -0.0787 
     12 C12        31.9049   -1.4226   -3.6612 C.ar      12 UNK        -0.0862 
     13 C13        30.7645   -0.9671   -4.3310 C.ar      12 UNK        -0.0733 
     14 C14        30.1360   -1.7946   -5.2652 C.ar      12 UNK        -0.0832 
     15 C15        30.1723    0.3997   -4.0320 C.3       12 UNK         0.0240 
     16 S16        28.5792    0.2272   -3.1657 S.3       12 UNK        -0.2522 
     17 C17        27.6406    1.6027   -3.9009 C.3       12 UNK        -0.0967 
     18 CA         26.9925    1.2189   -5.2563 C.3       5 UNK         0.0660 
     19 N          25.9420    0.1927   -5.1227 N.am      5 UNK        -0.4015 
     20 C          25.3311   -0.4017   -6.1641 C.2       4 UNK         0.4946 
     21 O          25.6260   -0.1609   -7.3341 O.2       4 UNK        -0.5353 
     22 CA         24.1594   -1.3651   -5.9062 C.3       4 UNK         0.0277 
     23 CB         24.5376   -2.8061   -6.2754 C.3       4 UNK        -0.1981 
     24 N          23.6328   -1.3205   -4.5424 N.am      4 UNK        -0.4209 
     25 C          22.9188   -0.2997   -4.0437 C.2       3 UNK         0.4942 
     26 O          22.6239    0.7040   -4.6943 O.2       3 UNK        -0.5208 
     27 CA         22.4931   -0.3889   -2.5650 C.3       3 UNK         0.0250 
     28 CB         21.0554   -0.9205   -2.4523 C.3       3 UNK        -0.1990 
     29 N          23.3801   -1.2093   -1.7310 N.am      3 UNK        -0.4232 
     30 C          24.6880   -0.9794   -1.5496 C.2       2 UNK         0.4993 
     31 O          25.2851   -0.0362   -2.0713 O.2       2 UNK        -0.5286 
     32 CA         25.4853   -1.9772   -0.6884 C.3       2 UNK         0.0209 
     33 CB         24.6447   -3.1193   -0.0710 C.3       2 UNK        -0.1931 
     34 N          26.6208   -2.5085   -1.4509 N.am      2 UNK        -0.4546 
     35 C          26.5741   -3.2098   -2.5957 C.2       1 UNK         0.5154 
     36 O          25.5245   -3.6080   -3.1044 O.2       1 UNK        -0.5181 
     37 C          26.5284    2.4909   -6.0041 C.2       5 UNK         0.5014 
     38 O          27.3764    3.2351   -6.4972 O.2       5 UNK        -0.5248 
     39 N          25.2097    2.7151   -6.1001 N.am      6 UNK        -0.4434 
     40 CA         24.6053    3.7699   -6.9139 C.3       6 UNK         0.0363 
     41 CB         23.1484    3.9663   -6.4632 C.3       6 UNK        -0.1936 
     42 C          24.6626    3.4939   -8.4313 C.2       6 UNK         0.5081 
     43 O          24.5142    4.4410   -9.2046 O.2       6 UNK        -0.5248 
     44 N          24.8431    2.2278   -8.8369 N.am      7 UNK        -0.4718 
     45 CA         24.8237    1.7881  -10.2361 C.3       7 UNK         0.0273 
     46 CB         23.6689    0.7900  -10.4260 C.3       7 UNK        -0.1935 
     47 C          26.1504    1.1518  -10.6799 C.2       7 UNK         0.5018 
     48 O          26.5414    1.3326  -11.8344 O.2       7 UNK        -0.5186 
     49 N          26.8033    0.3995   -9.7844 N.am      8 UNK        -0.4240 
     50 CA         28.0545   -0.3182  -10.0354 C.3       8 UNK         0.0235 
     51 CB         28.3053   -1.2863   -8.8654 C.3       8 UNK        -0.2000 
     52 C          29.2618    0.6189  -10.2137 C.2       8 UNK         0.4941 
     53 O          29.2568    1.7438   -9.7092 O.2       8 UNK        -0.5273 
     54 N          30.3051    0.1026  -10.8805 N.am      9 UNK        -0.4262 
     55 CA         31.6028    0.7701  -11.0551 C.3       9 UNK         0.0264 
     56 CB         32.4241    0.0136  -12.1124 C.3       9 UNK        -0.1955 
     57 C          32.4066    0.9103   -9.7459 C.2       9 UNK         0.5031 
     58 O          33.2407    1.8124   -9.6532 O.2       9 UNK        -0.5390 
     59 N          32.1125    0.0347   -8.7720 N.am      10 UNK        -0.4204 
     60 CA         32.6309   -0.0331   -7.4016 C.3       10 UNK         0.0237 
     61 CB         32.4230    1.3082   -6.6636 C.3       10 UNK        -0.1985 
     62 C          34.0857   -0.5186   -7.2926 C.2       10 UNK         0.4970 
     63 O          34.8038   -0.6153   -8.2899 O.2       10 UNK        -0.4914 
     64 N          34.4832   -0.8207   -6.0510 N.am      11 UNK        -0.4285 
     65 CA         35.8492   -1.2037   -5.6638 C.3       11 UNK         0.1007 
     66 C          36.8877   -0.0433   -5.7216 C.2       11 UNK         0.5703 
     67 N          36.4818    1.2156   -5.8427 N.am      11 UNK        -0.7361 
     68 O          38.0892   -0.2939   -5.6614 O.2       11 UNK        -0.4986 
     69 C69        35.8657   -1.8856   -4.2700 C.3       12 UNK        -0.0947 
     70 S70        35.0324   -3.5084   -4.2638 S.3       12 UNK        -0.2240 
     71 C71        33.6123   -3.2353   -3.1554 C.3       12 UNK         0.0194 
     72 H72        31.3865   -4.8406   -0.8556 H         1 UNK         0.0906 
     73 H73        31.1702   -3.0938   -0.9797 H         1 UNK         0.0906 
     74 H74        30.4743   -3.9728    0.3827 H         1 UNK         0.0906 
     75 H75        29.7146   -2.6059   -2.5899 H         1 UNK         0.3140 
     76 H76        28.0020   -2.5249   -3.9025 H         1 UNK         0.1085 
     77 H77        28.8532   -5.2666   -4.1195 H         1 UNK         0.0836 
     78 H78        27.1262   -5.3127   -4.1732 H         1 UNK         0.0836 
     79 H79        30.2193   -5.0588   -6.3333 H         1 UNK         0.0731 
     80 H80        29.9691   -3.7239   -7.4317 H         1 UNK         0.0731 
     81 H81        32.0823   -4.5548   -4.9578 H         1 UNK         0.1312 
     82 H82        32.3961   -0.7851   -2.9382 H         1 UNK         0.1406 
     83 H83        29.2515   -1.4437   -5.7785 H         1 UNK         0.1631 
     84 H84        30.0320    0.9361   -4.9704 H         1 UNK         0.0717 
     85 H85        30.8496    1.0031   -3.4258 H         1 UNK         0.0717 
     86 H86        28.3189    2.4522   -4.0087 H         1 UNK         0.0934 
     87 H87        26.8764    1.9207   -3.1893 H         1 UNK         0.0934 
     88 H88        27.7692    0.7825   -5.8876 H         1 UNK         0.0739 
     89 H89        25.6495   -0.0242   -4.1755 H         1 UNK         0.3093 
     90 H90        23.3562   -1.0580   -6.5798 H         1 UNK         0.0818 
     91 H91        23.6808   -3.4754   -6.1981 H         1 UNK         0.0819 
     92 H92        24.9044   -2.8657   -7.3012 H         1 UNK         0.0819 
     93 H93        25.3230   -3.1925   -5.6298 H         1 UNK         0.0819 
     94 H94        23.8686   -2.0971   -3.9369 H         1 UNK         0.3041 
     95 H95        22.5152    0.6265   -2.1636 H         1 UNK         0.0784 
     96 H96        20.3675   -0.3133   -3.0428 H         1 UNK         0.0793 
     97 H97        20.9747   -1.9471   -2.8120 H         1 UNK         0.0793 
     98 H98        20.7015   -0.8955   -1.4214 H         1 UNK         0.0793 
     99 H99        22.9691   -2.0172   -1.2858 H         1 UNK         0.3024 
    100 H100       25.9055   -1.3936    0.1324 H         1 UNK         0.1171 
    101 H101       25.2685   -3.7714    0.5405 H         1 UNK         0.0786 
    102 H102       24.1661   -3.7432   -0.8265 H         1 UNK         0.0786 
    103 H103       23.8640   -2.7268    0.5820 H         1 UNK         0.0786 
    104 H104       27.5328   -2.1975   -1.1467 H         1 UNK         0.2977 
    105 H105       24.5730    2.0680   -5.6538 H         1 UNK         0.3127 
    106 H106       25.1476    4.7001   -6.7305 H         1 UNK         0.0770 
    107 H107       22.6678    4.7655   -7.0292 H         1 UNK         0.0814 
    108 H108       23.0916    4.2384   -5.4091 H         1 UNK         0.0814 
    109 H109       22.5560    3.0617   -6.6083 H         1 UNK         0.0814 
    110 H110       25.0033    1.5057   -8.1415 H         1 UNK         0.2983 
    111 H111       24.6446    2.6365  -10.9003 H         1 UNK         0.0947 
    112 H112       23.6227    0.4357  -11.4568 H         1 UNK         0.0806 
    113 H113       22.7074    1.2506  -10.1989 H         1 UNK         0.0806 
    114 H114       23.7813   -0.0846   -9.7835 H         1 UNK         0.0806 
    115 H115       26.3958    0.2725   -8.8596 H         1 UNK         0.3000 
    116 H116       27.9277   -0.8984  -10.9519 H         1 UNK         0.0850 
    117 H117       29.1957   -1.8926   -9.0324 H         1 UNK         0.0810 
    118 H118       27.4698   -1.9742   -8.7312 H         1 UNK         0.0810 
    119 H119       28.4436   -0.7481   -7.9273 H         1 UNK         0.0810 
    120 H120       30.2198   -0.8242  -11.2739 H         1 UNK         0.3040 
    121 H121       31.4123    1.7788  -11.4283 H         1 UNK         0.0766 
    122 H122       33.3825    0.5054  -12.2852 H         1 UNK         0.0812 
    123 H123       32.6363   -1.0108  -11.8038 H         1 UNK         0.0812 
    124 H124       31.9040   -0.0225  -13.0698 H         1 UNK         0.0812 
    125 H125       31.4416   -0.6812   -9.0066 H         1 UNK         0.3205 
    126 H126       32.0216   -0.7894   -6.9105 H         1 UNK         0.0754 
    127 H127       32.6029    1.2081   -5.5932 H         1 UNK         0.0769 
    128 H128       31.4039    1.6742   -6.7889 H         1 UNK         0.0769 
    129 H129       33.0978    2.0823   -7.0302 H         1 UNK         0.0769 
    130 H130       33.8177   -0.7580   -5.2956 H         1 UNK         0.2981 
    131 H131       36.1963   -1.9377   -6.3937 H         1 UNK         0.0541 
    132 H132       35.5015    1.4359   -5.8996 H         1 UNK         0.3459 
    133 H133       37.1686    1.9521   -5.8827 H         1 UNK         0.3459 
    134 H134       35.4239   -1.2299   -3.5180 H         1 UNK         0.0612 
    135 H135       36.8911   -2.0679   -3.9427 H         1 UNK         0.0612 
    136 H136       33.3520   -4.1878   -2.6918 H         1 UNK         0.0624 
    137 H137       33.8955   -2.5713   -2.3374 H         1 UNK         0.0624 
@<TRIPOS>BOND
     1    1    2 1    
     2    1   72 1    
     3    1   73 1    
     4    1   74 1    
     5    2    3 2    
     6    2    4 am   BACKBONE|DICT|INTERRES
     7    4    5 1    
     8    4   75 1    
     9    5    6 1    
    10    5   35 1    
    11    5   76 1    
    12    6    7 1    
    13    6   77 1    
    14    6   78 1    
    15    7    8 1    
    16    8    9 1    
    17    8   79 1    
    18    8   80 1    
    19    9   10 ar   
    20    9   14 ar   
    21   10   11 ar   
    22   10   81 1    
    23   11   12 ar   
    24   11   71 1    
    25   12   13 ar   
    26   12   82 1    
    27   13   14 ar   
    28   13   15 1    
    29   14   83 1    
    30   15   16 1    
    31   15   84 1    
    32   15   85 1    
    33   16   17 1    
    34   17   18 1    
    35   17   86 1    
    36   17   87 1    
    37   18   19 1    
    38   18   37 1    
    39   18   88 1    
    40   19   20 am   BACKBONE|DICT|INTERRES
    41   19   89 1    
    42   20   21 2    
    43   20   22 1    
    44   22   23 1    
    45   22   24 1    
    46   22   90 1    
    47   23   91 1    
    48   23   92 1    
    49   23   93 1    
    50   24   25 am   BACKBONE|DICT|INTERRES
    51   24   94 1    
    52   25   26 2    
    53   25   27 1    
    54   27   28 1    
    55   27   29 1    
    56   27   95 1    
    57   28   96 1    
    58   28   97 1    
    59   28   98 1    
    60   29   30 am   BACKBONE|DICT|INTERRES
    61   29   99 1    
    62   30   31 2    
    63   30   32 1    
    64   32   33 1    
    65   32   34 1    
    66   32  100 1    
    67   33  101 1    
    68   33  102 1    
    69   33  103 1    
    70   34   35 am   BACKBONE|DICT|INTERRES
    71   34  104 1    
    72   35   36 2    
    73   37   38 2    
    74   37   39 am   BACKBONE|DICT|INTERRES
    75   39   40 1    
    76   39  105 1    
    77   40   41 1    
    78   40   42 1    
    79   40  106 1    
    80   41  107 1    
    81   41  108 1    
    82   41  109 1    
    83   42   43 2    
    84   42   44 am   BACKBONE|DICT|INTERRES
    85   44   45 1    
    86   44  110 1    
    87   45   46 1    
    88   45   47 1    
    89   45  111 1    
    90   46  112 1    
    91   46  113 1    
    92   46  114 1    
    93   47   48 2    
    94   47   49 am   BACKBONE|DICT|INTERRES
    95   49   50 1    
    96   49  115 1    
    97   50   51 1    
    98   50   52 1    
    99   50  116 1    
   100   51  117 1    
   101   51  118 1    
   102   51  119 1    
   103   52   53 2    
   104   52   54 am   BACKBONE|DICT|INTERRES
   105   54   55 1    
   106   54  120 1    
   107   55   56 1    
   108   55   57 1    
   109   55  121 1    
   110   56  122 1    
   111   56  123 1    
   112   56  124 1    
   113   57   58 2    
   114   57   59 am   BACKBONE|DICT|INTERRES
   115   59   60 1    
   116   59  125 1    
   117   60   61 1    
   118   60   62 1    
   119   60  126 1    
   120   61  127 1    
   121   61  128 1    
   122   61  129 1    
   123   62   63 2    
   124   62   64 am   BACKBONE|DICT|INTERRES
   125   64   65 1    
   126   64  130 1    
   127   65   66 1    
   128   65   69 1    
   129   65  131 1    
   130   66   67 am   BACKBONE|DICT|INTERRES
   131   66   68 2    
   132   67  132 1    
   133   67  133 1    
   134   69   70 1    
   135   69  134 1    
   136   69  135 1    
   137   70   71 1    
   138   71  136 1    
   139   71  137 1    
@<TRIPOS>SUBSTRUCTURE
     1 UNK         1 GROUP             0       ****    0 ROOT    
