@<TRIPOS>MOLECULE
3R137
137   139    1
SMALL
USER_CHARGES


@<TRIPOS>ATOM
      1 CA         26.2359   -5.4856   -3.7180 C.3       0 UNK        -0.2020 
      2 C          25.7683   -4.2563   -2.9536 C.2       0 UNK         0.4855 
      3 O          24.5851   -3.9196   -3.0048 O.2       0 UNK        -0.5197 
      4 N          26.6836   -3.5883   -2.2386 N.am      1 UNK        -0.4892 
      5 CA         26.3957   -2.4102   -1.4152 C.3       1 UNK         0.0835 
      6 C6         27.5149   -2.1399   -0.3737 C.3       12 UNK        -0.0855 
      7 S7         29.1032   -1.5958   -1.0872 S.3       12 UNK        -0.2931 
      8 C8         30.1556   -3.0746   -0.9521 C.3       12 UNK         0.0378 
      9 C9         30.9728   -3.2307   -2.2232 C.ar      12 UNK        -0.0802 
     10 C10        32.0870   -2.4162   -2.4470 C.ar      12 UNK        -0.0944 
     11 C11        32.7832   -2.4880   -3.6566 C.ar      12 UNK        -0.0787 
     12 C12        32.3690   -3.3912   -4.6397 C.ar      12 UNK        -0.0862 
     13 C13        31.2598   -4.2130   -4.4229 C.ar      12 UNK        -0.0733 
     14 C14        30.5776   -4.1431   -3.2051 C.ar      12 UNK        -0.0832 
     15 C15        30.7691   -5.1418   -5.5228 C.3       12 UNK         0.0240 
     16 S16        29.9229   -4.2239   -6.8502 S.3       12 UNK        -0.2522 
     17 C17        28.4814   -3.5290   -5.9794 C.3       12 UNK        -0.0967 
     18 CA         27.7962   -2.3746   -6.7529 C.3       5 UNK         0.0660 
     19 N          26.3574   -2.3456   -6.4603 N.am      5 UNK        -0.4015 
     20 C          25.4542   -1.5168   -6.9961 C.2       4 UNK         0.4946 
     21 O          25.7388   -0.5202   -7.6560 O.2       4 UNK        -0.5353 
     22 CA         23.9814   -1.8852   -6.7942 C.3       4 UNK         0.0277 
     23 CB         23.7040   -3.3860   -7.0282 C.3       4 UNK        -0.1981 
     24 N          23.5137   -1.4798   -5.4712 N.am      4 UNK        -0.4209 
     25 C          22.2329   -1.1960   -5.1882 C.2       3 UNK         0.4942 
     26 O          21.3303   -1.2125   -6.0268 O.2       3 UNK        -0.5208 
     27 CA         21.8716   -0.8527   -3.7313 C.3       3 UNK         0.0250 
     28 CB         21.2306   -2.0670   -3.0391 C.3       3 UNK        -0.1990 
     29 N          23.0180   -0.4071   -2.9418 N.am      3 UNK        -0.4232 
     30 C          23.6019    0.7939   -3.0521 C.2       2 UNK         0.4993 
     31 O          23.1698    1.6932   -3.7711 O.2       2 UNK        -0.5286 
     32 CA         24.8817    1.0392   -2.2308 C.3       2 UNK         0.0209 
     33 CB         24.6363    2.0955   -1.1407 C.3       2 UNK        -0.1931 
     34 N          25.4191   -0.1755   -1.6061 N.am      2 UNK        -0.4546 
     35 C          26.0321   -1.1689   -2.2640 C.2       1 UNK         0.5154 
     36 O          26.2716   -1.1336   -3.4771 O.2       1 UNK        -0.5181 
     37 C          28.5229   -1.0235   -6.5572 C.2       5 UNK         0.5014 
     38 O          29.2719   -0.5987   -7.4433 O.2       5 UNK        -0.5248 
     39 N          28.2657   -0.3509   -5.4258 N.am      6 UNK        -0.4434 
     40 CA         28.8570    0.9552   -5.1226 C.3       6 UNK         0.0363 
     41 CB         28.8917    1.1830   -3.6053 C.3       6 UNK        -0.1936 
     42 C          28.1518    2.1163   -5.8426 C.2       6 UNK         0.5081 
     43 O          28.8027    3.1230   -6.1185 O.2       6 UNK        -0.5248 
     44 N          26.8603    1.9619   -6.1716 N.am      7 UNK        -0.4718 
     45 CA         26.0966    2.9311   -6.9693 C.3       7 UNK         0.0273 
     46 CB         24.5899    2.6763   -6.8150 C.3       7 UNK        -0.1935 
     47 C          26.5093    2.9116   -8.4499 C.2       7 UNK         0.5018 
     48 O          26.5934    3.9695   -9.0737 O.2       7 UNK        -0.5186 
     49 N          26.8136    1.7124   -8.9646 N.am      8 UNK        -0.4240 
     50 CA         27.4257    1.4755  -10.2741 C.3       8 UNK         0.0235 
     51 CB         27.2982   -0.0193  -10.6135 C.3       8 UNK        -0.2000 
     52 C          28.9011    1.9171  -10.3499 C.2       8 UNK         0.4941 
     53 O          29.4421    1.9915  -11.4537 O.2       8 UNK        -0.5273 
     54 N          29.5179    2.1906   -9.1890 N.am      9 UNK        -0.4262 
     55 CA         30.9066    2.6094   -8.9803 C.3       9 UNK         0.0264 
     56 CB         31.1607    4.0053   -9.5879 C.3       9 UNK        -0.1955 
     57 C          31.9207    1.5503   -9.4472 C.2       9 UNK         0.5031 
     58 O          32.9528    1.8953  -10.0276 O.2       9 UNK        -0.5390 
     59 N          31.6241    0.2731   -9.1629 N.am      10 UNK        -0.4204 
     60 CA         32.4630   -0.8755   -9.5252 C.3       10 UNK         0.0237 
     61 CB         31.6710   -2.1635   -9.2681 C.3       10 UNK        -0.1985 
     62 C          33.8157   -0.9278   -8.7880 C.2       10 UNK         0.4970 
     63 O          34.7089   -1.6545   -9.2249 O.2       10 UNK        -0.4914 
     64 N          33.9405   -0.1700   -7.6916 N.am      11 UNK        -0.4285 
     65 CA         35.1471   -0.0482   -6.8610 C.3       11 UNK         0.1007 
     66 C          36.3479    0.6602   -7.5542 C.2       11 UNK         0.5703 
     67 N          36.1549    1.3661   -8.6633 N.am      11 UNK        -0.7361 
     68 O          37.4753    0.5640   -7.0752 O.2       11 UNK        -0.4986 
     69 C69        34.8428    0.6159   -5.4880 C.3       12 UNK        -0.0947 
     70 S70        33.3332   -0.0137   -4.6808 S.3       12 UNK        -0.2240 
     71 C71        33.9452   -1.5501   -3.9301 C.3       12 UNK         0.0194 
     72 H72        25.8216   -6.3839   -3.2611 H         1 UNK         0.0906 
     73 H73        27.3213   -5.5789   -3.7215 H         1 UNK         0.0906 
     74 H74        25.8904   -5.4457   -4.7502 H         1 UNK         0.0906 
     75 H75        27.6506   -3.8712   -2.2601 H         1 UNK         0.3140 
     76 H76        25.4956   -2.6542   -0.8456 H         1 UNK         0.1085 
     77 H77        27.6723   -3.0273    0.2413 H         1 UNK         0.0836 
     78 H78        27.1922   -1.3685    0.3278 H         1 UNK         0.0836 
     79 H79        30.8155   -2.9736   -0.0892 H         1 UNK         0.0731 
     80 H80        29.5514   -3.9659   -0.7777 H         1 UNK         0.0731 
     81 H81        32.3836   -1.6948   -1.6976 H         1 UNK         0.1312 
     82 H82        32.8862   -3.4290   -5.5890 H         1 UNK         0.1406 
     83 H83        29.7143   -4.7718   -3.0401 H         1 UNK         0.1631 
     84 H84        30.0952   -5.9012   -5.1231 H         1 UNK         0.0717 
     85 H85        31.6177   -5.6786   -5.9493 H         1 UNK         0.0717 
     86 H86        27.7915   -4.3634   -5.8572 H         1 UNK         0.0934 
     87 H87        28.7472   -3.2095   -4.9714 H         1 UNK         0.0934 
     88 H88        27.8587   -2.6007   -7.8197 H         1 UNK         0.0739 
     89 H89        26.0088   -3.1041   -5.8962 H         1 UNK         0.3093 
     90 H90        23.4282   -1.3229   -7.5503 H         1 UNK         0.0818 
     91 H91        24.1564   -3.7317   -7.9589 H         1 UNK         0.0819 
     92 H92        24.0880   -4.0079   -6.2189 H         1 UNK         0.0819 
     93 H93        22.6336   -3.5774   -7.1051 H         1 UNK         0.0819 
     94 H94        24.2095   -1.4222   -4.7377 H         1 UNK         0.3041 
     95 H95        21.1357   -0.0460   -3.7573 H         1 UNK         0.0784 
     96 H96        20.3501   -2.4080   -3.5854 H         1 UNK         0.0793 
     97 H97        21.9222   -2.9088   -2.9788 H         1 UNK         0.0793 
     98 H98        20.9072   -1.8232   -2.0269 H         1 UNK         0.0793 
     99 H99        23.4296   -1.0860   -2.3188 H         1 UNK         0.3024 
    100 H100       25.6245    1.4328   -2.9271 H         1 UNK         0.1171 
    101 H101       24.2707    3.0277   -1.5740 H         1 UNK         0.0786 
    102 H102       23.8950    1.7618   -0.4135 H         1 UNK         0.0786 
    103 H103       25.5548    2.3308   -0.6025 H         1 UNK         0.0786 
    104 H104       25.2674   -0.2681   -0.6114 H         1 UNK         0.2977 
    105 H105       27.6082   -0.7345   -4.7486 H         1 UNK         0.3127 
    106 H106       29.8941    0.9520   -5.4673 H         1 UNK         0.0770 
    107 H107       27.9032    1.1128   -3.1560 H         1 UNK         0.0814 
    108 H108       29.2918    2.1690   -3.3656 H         1 UNK         0.0814 
    109 H109       29.5363    0.4509   -3.1204 H         1 UNK         0.0814 
    110 H110       26.4117    1.0784   -5.9726 H         1 UNK         0.2983 
    111 H111       26.3074    3.9326   -6.5871 H         1 UNK         0.0947 
    112 H112       24.3127    1.6574   -7.0857 H         1 UNK         0.0806 
    113 H113       24.0122    3.3507   -7.4486 H         1 UNK         0.0806 
    114 H114       24.2701    2.8522   -5.7895 H         1 UNK         0.0806 
    115 H115       26.6139    0.8864   -8.4011 H         1 UNK         0.3000 
    116 H116       26.8721    2.0506  -11.0191 H         1 UNK         0.0850 
    117 H117       26.2555   -0.3377  -10.6174 H         1 UNK         0.0810 
    118 H118       27.8340   -0.6410   -9.8948 H         1 UNK         0.0810 
    119 H119       27.7074   -0.2344  -11.6015 H         1 UNK         0.0810 
    120 H120       28.9712    2.0831   -8.3457 H         1 UNK         0.3040 
    121 H121       31.0365    2.6953   -7.9004 H         1 UNK         0.0766 
    122 H122       31.1051    3.9903  -10.6768 H         1 UNK         0.0812 
    123 H123       32.1514    4.3738   -9.3190 H         1 UNK         0.0812 
    124 H124       30.4353    4.7330   -9.2241 H         1 UNK         0.0812 
    125 H125       30.7637    0.0653   -8.6608 H         1 UNK         0.3205 
    126 H126       32.6768   -0.8098  -10.5939 H         1 UNK         0.0754 
    127 H127       32.2331   -3.0448   -9.5799 H         1 UNK         0.0769 
    128 H128       30.7247   -2.1698   -9.8096 H         1 UNK         0.0769 
    129 H129       31.4517   -2.2727   -8.2067 H         1 UNK         0.0769 
    130 H130       33.1474    0.3758   -7.3932 H         1 UNK         0.2981 
    131 H131       35.4832   -1.0670   -6.6613 H         1 UNK         0.0541 
    132 H132       36.9403    1.8178   -9.1041 H         1 UNK         0.3459 
    133 H133       35.2317    1.4522   -9.0636 H         1 UNK         0.3459 
    134 H134       34.7106    1.6924   -5.6123 H         1 UNK         0.0612 
    135 H135       35.6855    0.4909   -4.8054 H         1 UNK         0.0612 
    136 H136       34.4810   -1.3184   -3.0084 H         1 UNK         0.0624 
    137 H137       34.6611   -2.0336   -4.5959 H         1 UNK         0.0624 
@<TRIPOS>BOND
     1    1    2 1    
     2    1   72 1    
     3    1   73 1    
     4    1   74 1    
     5    2    3 2    
     6    2    4 am   BACKBONE|DICT|INTERRES
     7    4    5 1    
     8    4   75 1    
     9    5    6 1    
    10    5   35 1    
    11    5   76 1    
    12    6    7 1    
    13    6   77 1    
    14    6   78 1    
    15    7    8 1    
    16    8    9 1    
    17    8   79 1    
    18    8   80 1    
    19    9   10 ar   
    20    9   14 ar   
    21   10   11 ar   
    22   10   81 1    
    23   11   12 ar   
    24   11   71 1    
    25   12   13 ar   
    26   12   82 1    
    27   13   14 ar   
    28   13   15 1    
    29   14   83 1    
    30   15   16 1    
    31   15   84 1    
    32   15   85 1    
    33   16   17 1    
    34   17   18 1    
    35   17   86 1    
    36   17   87 1    
    37   18   19 1    
    38   18   37 1    
    39   18   88 1    
    40   19   20 am   BACKBONE|DICT|INTERRES
    41   19   89 1    
    42   20   21 2    
    43   20   22 1    
    44   22   23 1    
    45   22   24 1    
    46   22   90 1    
    47   23   91 1    
    48   23   92 1    
    49   23   93 1    
    50   24   25 am   BACKBONE|DICT|INTERRES
    51   24   94 1    
    52   25   26 2    
    53   25   27 1    
    54   27   28 1    
    55   27   29 1    
    56   27   95 1    
    57   28   96 1    
    58   28   97 1    
    59   28   98 1    
    60   29   30 am   BACKBONE|DICT|INTERRES
    61   29   99 1    
    62   30   31 2    
    63   30   32 1    
    64   32   33 1    
    65   32   34 1    
    66   32  100 1    
    67   33  101 1    
    68   33  102 1    
    69   33  103 1    
    70   34   35 am   BACKBONE|DICT|INTERRES
    71   34  104 1    
    72   35   36 2    
    73   37   38 2    
    74   37   39 am   BACKBONE|DICT|INTERRES
    75   39   40 1    
    76   39  105 1    
    77   40   41 1    
    78   40   42 1    
    79   40  106 1    
    80   41  107 1    
    81   41  108 1    
    82   41  109 1    
    83   42   43 2    
    84   42   44 am   BACKBONE|DICT|INTERRES
    85   44   45 1    
    86   44  110 1    
    87   45   46 1    
    88   45   47 1    
    89   45  111 1    
    90   46  112 1    
    91   46  113 1    
    92   46  114 1    
    93   47   48 2    
    94   47   49 am   BACKBONE|DICT|INTERRES
    95   49   50 1    
    96   49  115 1    
    97   50   51 1    
    98   50   52 1    
    99   50  116 1    
   100   51  117 1    
   101   51  118 1    
   102   51  119 1    
   103   52   53 2    
   104   52   54 am   BACKBONE|DICT|INTERRES
   105   54   55 1    
   106   54  120 1    
   107   55   56 1    
   108   55   57 1    
   109   55  121 1    
   110   56  122 1    
   111   56  123 1    
   112   56  124 1    
   113   57   58 2    
   114   57   59 am   BACKBONE|DICT|INTERRES
   115   59   60 1    
   116   59  125 1    
   117   60   61 1    
   118   60   62 1    
   119   60  126 1    
   120   61  127 1    
   121   61  128 1    
   122   61  129 1    
   123   62   63 2    
   124   62   64 am   BACKBONE|DICT|INTERRES
   125   64   65 1    
   126   64  130 1    
   127   65   66 1    
   128   65   69 1    
   129   65  131 1    
   130   66   67 am   BACKBONE|DICT|INTERRES
   131   66   68 2    
   132   67  132 1    
   133   67  133 1    
   134   69   70 1    
   135   69  134 1    
   136   69  135 1    
   137   70   71 1    
   138   71  136 1    
   139   71  137 1    
@<TRIPOS>SUBSTRUCTURE
     1 UNK         1 GROUP             0       ****    0 ROOT    
