@<TRIPOS>MOLECULE
3R137
137   139    1
SMALL
USER_CHARGES


@<TRIPOS>ATOM
      1 CA         29.8173    1.5404   -3.4825 C.3       0 UNK        -0.2020 
      2 C          29.1624    0.2123   -3.1335 C.2       0 UNK         0.4855 
      3 O          28.4325   -0.3441   -3.9520 O.2       0 UNK        -0.5197 
      4 N          29.4167   -0.3075   -1.9266 N.am      1 UNK        -0.4892 
      5 CA         28.9084   -1.5999   -1.4550 C.3       1 UNK         0.0835 
      6 C6         29.8063   -2.2273   -0.3542 C.3       12 UNK        -0.0855 
      7 S7         31.5725   -2.3264   -0.8078 S.3       12 UNK        -0.2931 
      8 C8         31.6384   -3.8634   -1.7889 C.3       12 UNK         0.0378 
      9 C9         31.0010   -3.7172   -3.1672 C.ar      12 UNK        -0.0802 
     10 C10        31.3856   -2.6770   -4.0184 C.ar      12 UNK        -0.0944 
     11 C11        30.8185   -2.5477   -5.2882 C.ar      12 UNK        -0.0787 
     12 C12        29.8593   -3.4725   -5.7085 C.ar      12 UNK        -0.0862 
     13 C13        29.4506   -4.5159   -4.8658 C.ar      12 UNK        -0.0733 
     14 C14        30.0338   -4.6306   -3.5987 C.ar      12 UNK        -0.0832 
     15 C15        28.4200   -5.5641   -5.2918 C.3       12 UNK         0.0240 
     16 S16        27.3221   -5.0822   -6.6690 S.3       12 UNK        -0.2522 
     17 C17        26.2353   -3.8584   -5.8623 C.3       12 UNK        -0.0967 
     18 CA         25.0746   -3.4199   -6.7978 C.3       5 UNK         0.0660 
     19 N          23.8864   -3.0553   -6.0270 N.am      5 UNK        -0.4015 
     20 C          22.6269   -3.3973   -6.3331 C.2       4 UNK         0.4946 
     21 O          22.3283   -4.1361   -7.2732 O.2       4 UNK        -0.5353 
     22 CA         21.4951   -2.8471   -5.4413 C.3       4 UNK         0.0277 
     23 CB         20.9808   -3.9426   -4.4926 C.3       4 UNK        -0.1981 
     24 N          21.8948   -1.6837   -4.6486 N.am      4 UNK        -0.4209 
     25 C          22.0657   -0.4458   -5.1330 C.2       3 UNK         0.4942 
     26 O          21.7613   -0.1133   -6.2785 O.2       3 UNK        -0.5208 
     27 CA         22.6911    0.5993   -4.1866 C.3       3 UNK         0.0250 
     28 CB         21.6177    1.5770   -3.6799 C.3       3 UNK        -0.1990 
     29 N          23.4094    0.0352   -3.0341 N.am      3 UNK        -0.4232 
     30 C          24.4978   -0.7426   -3.1118 C.2       2 UNK         0.4993 
     31 O          24.9930   -1.1264   -4.1733 O.2       2 UNK        -0.5286 
     32 CA         25.0896   -1.2363   -1.7911 C.3       2 UNK         0.0209 
     33 CB         24.4394   -2.5692   -1.3734 C.3       2 UNK        -0.1931 
     34 N          26.5257   -1.4107   -1.9769 N.am      2 UNK        -0.4546 
     35 C          27.4395   -1.4683   -1.0046 C.2       1 UNK         0.5154 
     36 O          27.1622   -1.3916    0.1944 O.2       1 UNK        -0.5181 
     37 C          25.4729   -2.2487   -7.7205 C.2       5 UNK         0.5014 
     38 O          24.8122   -1.2061   -7.7384 O.2       5 UNK        -0.5248 
     39 N          26.5666   -2.4286   -8.4713 N.am      6 UNK        -0.4434 
     40 CA         27.1553   -1.4458   -9.3871 C.3       6 UNK         0.0363 
     41 CB         28.0634   -2.1849  -10.3877 C.3       6 UNK        -0.1936 
     42 C          27.9006   -0.3157   -8.6459 C.2       6 UNK         0.5081 
     43 O          29.0690   -0.0552   -8.9335 O.2       6 UNK        -0.5248 
     44 N          27.2138    0.3461   -7.7055 N.am      7 UNK        -0.4718 
     45 CA         27.7477    1.3760   -6.8066 C.3       7 UNK         0.0273 
     46 CB         26.6352    1.8441   -5.8555 C.3       7 UNK        -0.1935 
     47 C          28.3925    2.5763   -7.5169 C.2       7 UNK         0.5018 
     48 O          29.3482    3.1469   -6.9906 O.2       7 UNK        -0.5186 
     49 N          27.9026    2.8960   -8.7229 N.am      8 UNK        -0.4240 
     50 CA         28.4449    3.9201   -9.6197 C.3       8 UNK         0.0235 
     51 CB         27.5222    4.0558  -10.8419 C.3       8 UNK        -0.2000 
     52 C          29.8978    3.6661  -10.0687 C.2       8 UNK         0.4941 
     53 O          30.5788    4.6235  -10.4376 O.2       8 UNK        -0.5273 
     54 N          30.3596    2.4066  -10.0169 N.am      9 UNK        -0.4262 
     55 CA         31.7479    2.0300  -10.2919 C.3       9 UNK         0.0264 
     56 CB         31.8026    0.5427  -10.6806 C.3       9 UNK        -0.1955 
     57 C          32.6959    2.3047   -9.1095 C.2       9 UNK         0.5031 
     58 O          33.9103    2.2214   -9.3017 O.2       9 UNK        -0.5390 
     59 N          32.1511    2.5840   -7.9125 N.am      10 UNK        -0.4204 
     60 CA         32.8161    2.8217   -6.6203 C.3       10 UNK         0.0237 
     61 CB         33.7388    4.0547   -6.6753 C.3       10 UNK        -0.1985 
     62 C          33.5526    1.6005   -6.0360 C.2       10 UNK         0.4970 
     63 O          33.4432    1.3593   -4.8340 O.2       10 UNK        -0.4914 
     64 N          34.2628    0.8535   -6.8887 N.am      11 UNK        -0.4285 
     65 CA         34.9831   -0.3986   -6.6016 C.3       11 UNK         0.1007 
     66 C          36.2390   -0.2359   -5.6918 C.2       11 UNK         0.5703 
     67 N          36.7554    0.9702   -5.4861 N.am      11 UNK        -0.7361 
     68 O          36.7796   -1.2193   -5.1906 O.2       11 UNK        -0.4986 
     69 C69        34.0477   -1.5506   -6.1319 C.3       12 UNK        -0.0947 
     70 S70        32.6378   -1.8419   -7.2585 S.3       12 UNK        -0.2240 
     71 C71        31.2218   -1.4005   -6.2031 C.3       12 UNK         0.0194 
     72 H72        30.3916    1.4449   -4.4037 H         1 UNK         0.0906 
     73 H73        29.0575    2.3060   -3.6347 H         1 UNK         0.0906 
     74 H74        30.4939    1.8804   -2.6986 H         1 UNK         0.0906 
     75 H75        30.0173    0.1849   -1.2810 H         1 UNK         0.3140 
     76 H76        28.9047   -2.2903   -2.2996 H         1 UNK         0.1085 
     77 H77        29.4502   -3.2264   -0.0960 H         1 UNK         0.0836 
     78 H78        29.7472   -1.6411    0.5649 H         1 UNK         0.0836 
     79 H79        31.1732   -4.6709   -1.2216 H         1 UNK         0.0731 
     80 H80        32.6835   -4.1455   -1.9220 H         1 UNK         0.0731 
     81 H81        32.1188   -1.9592   -3.6801 H         1 UNK         0.1312 
     82 H82        29.4385   -3.3684   -6.6979 H         1 UNK         0.1406 
     83 H83        29.7367   -5.4417   -2.9473 H         1 UNK         0.1631 
     84 H84        27.8004   -5.8447   -4.4386 H         1 UNK         0.0717 
     85 H85        28.9584   -6.4647   -5.5892 H         1 UNK         0.0717 
     86 H86        25.8331   -4.3323   -4.9651 H         1 UNK         0.0934 
     87 H87        26.8202   -3.0058   -5.5073 H         1 UNK         0.0934 
     88 H88        24.8193   -4.2585   -7.4492 H         1 UNK         0.0739 
     89 H89        24.0536   -2.3639   -5.3009 H         1 UNK         0.3093 
     90 H90        20.6754   -2.5514   -6.0994 H         1 UNK         0.0818 
     91 H91        21.7570   -4.2795   -3.8046 H         1 UNK         0.0819 
     92 H92        20.1351   -3.5913   -3.9012 H         1 UNK         0.0819 
     93 H93        20.6413   -4.8153   -5.0523 H         1 UNK         0.0819 
     94 H94        22.1458   -1.8539   -3.6863 H         1 UNK         0.3041 
     95 H95        23.4161    1.1635   -4.7773 H         1 UNK         0.0784 
     96 H96        21.0864    2.0404   -4.5125 H         1 UNK         0.0793 
     97 H97        20.8748    1.0748   -3.0590 H         1 UNK         0.0793 
     98 H98        22.0587    2.3831   -3.0933 H         1 UNK         0.0793 
     99 H99        23.0512    0.2818   -2.1220 H         1 UNK         0.3024 
    100 H100       24.9200   -0.4811   -1.0203 H         1 UNK         0.1171 
    101 H101       24.6016   -3.3468   -2.1210 H         1 UNK         0.0786 
    102 H102       23.3623   -2.4585   -1.2430 H         1 UNK         0.0786 
    103 H103       24.8406   -2.9295   -0.4260 H         1 UNK         0.0786 
    104 H104       26.8398   -1.3618   -2.9437 H         1 UNK         0.2977 
    105 H105       27.0709   -3.2985   -8.3611 H         1 UNK         0.3127 
    106 H106       26.3489   -0.9764   -9.9540 H         1 UNK         0.0770 
    107 H107       28.9020   -2.6709   -9.8875 H         1 UNK         0.0814 
    108 H108       28.4796   -1.4944  -11.1225 H         1 UNK         0.0814 
    109 H109       27.5119   -2.9466  -10.9388 H         1 UNK         0.0814 
    110 H110       26.2564    0.0441   -7.5414 H         1 UNK         0.2983 
    111 H111       28.5344    0.9034   -6.2175 H         1 UNK         0.0947 
    112 H112       25.7902    2.2695   -6.3978 H         1 UNK         0.0806 
    113 H113       27.0020    2.6061   -5.1668 H         1 UNK         0.0806 
    114 H114       26.2643    1.0169   -5.2502 H         1 UNK         0.0806 
    115 H115       27.1241    2.3539   -9.0686 H         1 UNK         0.3000 
    116 H116       28.4381    4.8672   -9.0759 H         1 UNK         0.0850 
    117 H117       27.8801    4.8348  -11.5168 H         1 UNK         0.0810 
    118 H118       26.5083    4.3275  -10.5473 H         1 UNK         0.0810 
    119 H119       27.4706    3.1282  -11.4136 H         1 UNK         0.0810 
    120 H120       29.7502    1.6609   -9.6899 H         1 UNK         0.3040 
    121 H121       32.1071    2.6140  -11.1419 H         1 UNK         0.0766 
    122 H122       31.1256    0.3192  -11.5051 H         1 UNK         0.0812 
    123 H123       31.5380   -0.1044   -9.8433 H         1 UNK         0.0812 
    124 H124       32.8068    0.2606  -10.9995 H         1 UNK         0.0812 
    125 H125       31.1380    2.6291   -7.8633 H         1 UNK         0.3205 
    126 H126       32.0087    3.0538   -5.9236 H         1 UNK         0.0754 
    127 H127       34.1434    4.2812   -5.6880 H         1 UNK         0.0769 
    128 H128       33.1967    4.9379   -7.0135 H         1 UNK         0.0769 
    129 H129       34.5857    3.9050   -7.3455 H         1 UNK         0.0769 
    130 H130       34.3048    1.1784   -7.8520 H         1 UNK         0.2981 
    131 H131       35.3931   -0.7041   -7.5645 H         1 UNK         0.0541 
    132 H132       36.3302    1.7835   -5.9004 H         1 UNK         0.3459 
    133 H133       37.5744    1.0648   -4.9067 H         1 UNK         0.3459 
    134 H134       34.6022   -2.4881   -6.0665 H         1 UNK         0.0612 
    135 H135       33.6885   -1.3459   -5.1249 H         1 UNK         0.0612 
    136 H136       30.3816   -1.1293   -6.8426 H         1 UNK         0.0624 
    137 H137       31.4510   -0.5096   -5.6184 H         1 UNK         0.0624 
@<TRIPOS>BOND
     1    1    2 1    
     2    1   72 1    
     3    1   73 1    
     4    1   74 1    
     5    2    3 2    
     6    2    4 am   BACKBONE|DICT|INTERRES
     7    4    5 1    
     8    4   75 1    
     9    5    6 1    
    10    5   35 1    
    11    5   76 1    
    12    6    7 1    
    13    6   77 1    
    14    6   78 1    
    15    7    8 1    
    16    8    9 1    
    17    8   79 1    
    18    8   80 1    
    19    9   10 ar   
    20    9   14 ar   
    21   10   11 ar   
    22   10   81 1    
    23   11   12 ar   
    24   11   71 1    
    25   12   13 ar   
    26   12   82 1    
    27   13   14 ar   
    28   13   15 1    
    29   14   83 1    
    30   15   16 1    
    31   15   84 1    
    32   15   85 1    
    33   16   17 1    
    34   17   18 1    
    35   17   86 1    
    36   17   87 1    
    37   18   19 1    
    38   18   37 1    
    39   18   88 1    
    40   19   20 am   BACKBONE|DICT|INTERRES
    41   19   89 1    
    42   20   21 2    
    43   20   22 1    
    44   22   23 1    
    45   22   24 1    
    46   22   90 1    
    47   23   91 1    
    48   23   92 1    
    49   23   93 1    
    50   24   25 am   BACKBONE|DICT|INTERRES
    51   24   94 1    
    52   25   26 2    
    53   25   27 1    
    54   27   28 1    
    55   27   29 1    
    56   27   95 1    
    57   28   96 1    
    58   28   97 1    
    59   28   98 1    
    60   29   30 am   BACKBONE|DICT|INTERRES
    61   29   99 1    
    62   30   31 2    
    63   30   32 1    
    64   32   33 1    
    65   32   34 1    
    66   32  100 1    
    67   33  101 1    
    68   33  102 1    
    69   33  103 1    
    70   34   35 am   BACKBONE|DICT|INTERRES
    71   34  104 1    
    72   35   36 2    
    73   37   38 2    
    74   37   39 am   BACKBONE|DICT|INTERRES
    75   39   40 1    
    76   39  105 1    
    77   40   41 1    
    78   40   42 1    
    79   40  106 1    
    80   41  107 1    
    81   41  108 1    
    82   41  109 1    
    83   42   43 2    
    84   42   44 am   BACKBONE|DICT|INTERRES
    85   44   45 1    
    86   44  110 1    
    87   45   46 1    
    88   45   47 1    
    89   45  111 1    
    90   46  112 1    
    91   46  113 1    
    92   46  114 1    
    93   47   48 2    
    94   47   49 am   BACKBONE|DICT|INTERRES
    95   49   50 1    
    96   49  115 1    
    97   50   51 1    
    98   50   52 1    
    99   50  116 1    
   100   51  117 1    
   101   51  118 1    
   102   51  119 1    
   103   52   53 2    
   104   52   54 am   BACKBONE|DICT|INTERRES
   105   54   55 1    
   106   54  120 1    
   107   55   56 1    
   108   55   57 1    
   109   55  121 1    
   110   56  122 1    
   111   56  123 1    
   112   56  124 1    
   113   57   58 2    
   114   57   59 am   BACKBONE|DICT|INTERRES
   115   59   60 1    
   116   59  125 1    
   117   60   61 1    
   118   60   62 1    
   119   60  126 1    
   120   61  127 1    
   121   61  128 1    
   122   61  129 1    
   123   62   63 2    
   124   62   64 am   BACKBONE|DICT|INTERRES
   125   64   65 1    
   126   64  130 1    
   127   65   66 1    
   128   65   69 1    
   129   65  131 1    
   130   66   67 am   BACKBONE|DICT|INTERRES
   131   66   68 2    
   132   67  132 1    
   133   67  133 1    
   134   69   70 1    
   135   69  134 1    
   136   69  135 1    
   137   70   71 1    
   138   71  136 1    
   139   71  137 1    
@<TRIPOS>SUBSTRUCTURE
     1 UNK         1 GROUP             0       ****    0 ROOT    
