@<TRIPOS>MOLECULE
3R137
137   139    1
SMALL
USER_CHARGES


@<TRIPOS>ATOM
      1 CA         31.0633    1.1308    0.2887 C.3       0 UNK        -0.2020 
      2 C          30.1428   -0.0808    0.2718 C.2       0 UNK         0.4855 
      3 O          29.5417   -0.4029    1.2974 O.2       0 UNK        -0.5197 
      4 N          30.0498   -0.7524   -0.8832 N.am      1 UNK        -0.4892 
      5 CA         29.2151   -1.9207   -1.1842 C.3       1 UNK         0.0835 
      6 C6         29.4963   -3.1104   -0.2273 C.3       12 UNK        -0.0855 
      7 S7         29.2630   -4.7360   -1.0188 S.3       12 UNK        -0.2931 
      8 C8         30.9436   -5.1099   -1.6278 C.3       12 UNK         0.0378 
      9 C9         31.1823   -4.6810   -3.0738 C.ar      12 UNK        -0.0802 
     10 C10        32.3744   -4.0381   -3.4324 C.ar      12 UNK        -0.0944 
     11 C11        32.6678   -3.7765   -4.7765 C.ar      12 UNK        -0.0787 
     12 C12        31.7433   -4.1399   -5.7601 C.ar      12 UNK        -0.0862 
     13 C13        30.5390   -4.7600   -5.4162 C.ar      12 UNK        -0.0733 
     14 C14        30.2659   -5.0289   -4.0729 C.ar      12 UNK        -0.0832 
     15 C15        29.5753   -5.2150   -6.5032 C.3       12 UNK         0.0240 
     16 S16        29.0101   -3.8413   -7.5501 S.3       12 UNK        -0.2522 
     17 C17        27.7524   -3.0589   -6.4896 C.3       12 UNK        -0.0967 
     18 CA         27.0583   -1.8955   -7.2414 C.3       5 UNK         0.0660 
     19 N          25.6398   -1.7715   -6.9047 N.am      5 UNK        -0.4015 
     20 C          24.7350   -1.1734   -7.6920 C.2       4 UNK         0.4946 
     21 O          25.0026   -0.6813   -8.7884 O.2       4 UNK        -0.5353 
     22 CA         23.2994   -1.0741   -7.1504 C.3       4 UNK         0.0277 
     23 CB         22.5370   -2.3874   -7.3877 C.3       4 UNK        -0.1981 
     24 N          23.2562   -0.7263   -5.7282 N.am      4 UNK        -0.4209 
     25 C          23.6617    0.4513   -5.2331 C.2       3 UNK         0.4942 
     26 O          24.0668    1.3822   -5.9291 O.2       3 UNK        -0.5208 
     27 CA         23.6525    0.6053   -3.7022 C.3       3 UNK         0.0250 
     28 CB         22.2682    1.0681   -3.2201 C.3       3 UNK        -0.1990 
     29 N          24.0600   -0.5890   -2.9484 N.am      3 UNK        -0.4232 
     30 C          25.2006   -1.2733   -3.1195 C.2       2 UNK         0.4993 
     31 O          25.9894   -1.0817   -4.0471 O.2       2 UNK        -0.5286 
     32 CA         25.4960   -2.3910   -2.1059 C.3       2 UNK         0.0209 
     33 CB         24.9653   -3.7347   -2.6313 C.3       2 UNK        -0.1931 
     34 N          26.9310   -2.5227   -1.8330 N.am      2 UNK        -0.4546 
     35 C          27.7108   -1.5732   -1.2970 C.2       1 UNK         0.5154 
     36 O          27.2791   -0.4805   -0.9179 O.2       1 UNK        -0.5181 
     37 C          27.7982   -0.5576   -7.0603 C.2       5 UNK         0.5014 
     38 O          28.6887   -0.2513   -7.8506 O.2       5 UNK        -0.5248 
     39 N          27.4013    0.2405   -6.0590 N.am      6 UNK        -0.4434 
     40 CA         27.8861    1.6075   -5.8490 C.3       6 UNK         0.0363 
     41 CB         27.3460    2.1546   -4.5200 C.3       6 UNK        -0.1936 
     42 C          27.5406    2.5462   -7.0187 C.2       6 UNK         0.5081 
     43 O          28.3403    3.4205   -7.3465 O.2       6 UNK        -0.5248 
     44 N          26.3816    2.3320   -7.6550 N.am      7 UNK        -0.4718 
     45 CA         26.0006    3.0014   -8.8973 C.3       7 UNK         0.0273 
     46 CB         24.4826    2.8776   -9.1085 C.3       7 UNK        -0.1935 
     47 C          26.7768    2.4581  -10.1106 C.2       7 UNK         0.5018 
     48 O          27.3122    3.2514  -10.8854 O.2       7 UNK        -0.5186 
     49 N          26.8061    1.1267  -10.2689 N.am      8 UNK        -0.4240 
     50 CA         27.3548    0.4537  -11.4499 C.3       8 UNK         0.0235 
     51 CB         26.8057   -0.9806  -11.5221 C.3       8 UNK        -0.2000 
     52 C          28.8910    0.4353  -11.5316 C.2       8 UNK         0.4941 
     53 O          29.4295    0.6338  -12.6218 O.2       8 UNK        -0.5273 
     54 N          29.5649    0.1539  -10.4097 N.am      9 UNK        -0.4262 
     55 CA         30.9993   -0.1468  -10.3415 C.3       9 UNK         0.0264 
     56 CB         31.1687   -1.6268   -9.9498 C.3       9 UNK        -0.1955 
     57 C          31.7599    0.7651   -9.3645 C.2       9 UNK         0.5031 
     58 O          32.9246    0.4854   -9.0763 O.2       9 UNK        -0.5390 
     59 N          31.1099    1.8235   -8.8603 N.am      10 UNK        -0.4204 
     60 CA         31.6063    2.8372   -7.9169 C.3       10 UNK         0.0237 
     61 CB         32.8525    3.5704   -8.4542 C.3       10 UNK        -0.1985 
     62 C          31.8349    2.3213   -6.4843 C.2       10 UNK         0.4970 
     63 O          31.3968    2.9798   -5.5405 O.2       10 UNK        -0.4914 
     64 N          32.5148    1.1787   -6.3330 N.am      11 UNK        -0.4285 
     65 CA         32.7993    0.5497   -5.0340 C.3       11 UNK         0.1007 
     66 C          31.5883   -0.1554   -4.3680 C.2       11 UNK         0.5703 
     67 N          30.5593   -0.5484   -5.1057 N.am      11 UNK        -0.7361 
     68 O          31.5780   -0.3250   -3.1527 O.2       11 UNK        -0.4986 
     69 C69        34.0468   -0.3668   -5.0826 C.3       12 UNK        -0.0947 
     70 S70        33.9200   -1.7501   -6.2681 S.3       12 UNK        -0.2240 
     71 C71        34.0267   -3.2126   -5.1808 C.3       12 UNK         0.0194 
     72 H72        30.4969    2.0284    0.5356 H         1 UNK         0.0906 
     73 H73        31.8423    1.0008    1.0394 H         1 UNK         0.0906 
     74 H74        31.5455    1.2889   -0.6762 H         1 UNK         0.0906 
     75 H75        30.6053   -0.4376   -1.6798 H         1 UNK         0.3140 
     76 H76        29.5315   -2.2115   -2.1879 H         1 UNK         0.1085 
     77 H77        30.5186   -3.0612    0.1505 H         1 UNK         0.0836 
     78 H78        28.8636   -3.0557    0.6609 H         1 UNK         0.0836 
     79 H79        31.6903   -4.6760   -0.9615 H         1 UNK         0.0731 
     80 H80        31.0890   -6.1896   -1.5733 H         1 UNK         0.0731 
     81 H81        33.1005   -3.7917   -2.6699 H         1 UNK         0.1312 
     82 H82        31.9724   -3.9620   -6.8021 H         1 UNK         0.1406 
     83 H83        29.3563   -5.5494   -3.8055 H         1 UNK         0.1631 
     84 H84        28.7103   -5.7279   -6.0799 H         1 UNK         0.0717 
     85 H85        30.0844   -5.9446   -7.1342 H         1 UNK         0.0717 
     86 H86        27.0257   -3.8307   -6.2304 H         1 UNK         0.0934 
     87 H87        28.1991   -2.7377   -5.5461 H         1 UNK         0.0934 
     88 H88        27.0913   -2.1207   -8.3097 H         1 UNK         0.0739 
     89 H89        25.3709   -2.0513   -5.9713 H         1 UNK         0.3093 
     90 H90        22.7931   -0.2813   -7.7058 H         1 UNK         0.0818 
     91 H91        21.4928   -2.2996   -7.0870 H         1 UNK         0.0819 
     92 H92        22.5456   -2.6562   -8.4451 H         1 UNK         0.0819 
     93 H93        22.9768   -3.2197   -6.8366 H         1 UNK         0.0819 
     94 H94        22.9311   -1.4337   -5.0853 H         1 UNK         0.3041 
     95 H95        24.3699    1.3898   -3.4559 H         1 UNK         0.0784 
     96 H96        21.9497    1.9665   -3.7513 H         1 UNK         0.0793 
     97 H97        21.5061    0.3053   -3.3842 H         1 UNK         0.0793 
     98 H98        22.2777    1.3112   -2.1574 H         1 UNK         0.0793 
     99 H99        23.4623   -0.8443   -2.1752 H         1 UNK         0.3024 
    100 H100       24.9991   -2.1523   -1.1630 H         1 UNK         0.1171 
    101 H101       23.8918   -3.6875   -2.8195 H         1 UNK         0.0786 
    102 H102       25.1299   -4.5356   -1.9100 H         1 UNK         0.0786 
    103 H103       25.4486   -4.0215   -3.5664 H         1 UNK         0.0786 
    104 H104       27.3638   -3.3959   -2.1004 H         1 UNK         0.2977 
    105 H105       26.7246   -0.1209   -5.3878 H         1 UNK         0.3127 
    106 H106       28.9732    1.5656   -5.7775 H         1 UNK         0.0770 
    107 H107       26.2651    2.2861   -4.5499 H         1 UNK         0.0814 
    108 H108       27.7860    3.1272   -4.2965 H         1 UNK         0.0814 
    109 H109       27.5838    1.4901   -3.6885 H         1 UNK         0.0814 
    110 H110       25.7353    1.6484   -7.2772 H         1 UNK         0.2983 
    111 H111       26.2372    4.0637   -8.8019 H         1 UNK         0.0947 
    112 H112       24.1727    3.3898  -10.0203 H         1 UNK         0.0806 
    113 H113       23.9318    3.3252   -8.2809 H         1 UNK         0.0806 
    114 H114       24.1646    1.8383   -9.1936 H         1 UNK         0.0806 
    115 H115       26.2999    0.5443   -9.6069 H         1 UNK         0.3000 
    116 H116       26.9922    0.9876  -12.3313 H         1 UNK         0.0850 
    117 H117       27.1639   -1.4926  -12.4163 H         1 UNK         0.0810 
    118 H118       25.7162   -0.9870  -11.5598 H         1 UNK         0.0810 
    119 H119       27.1135   -1.5744  -10.6611 H         1 UNK         0.0810 
    120 H120       29.0548    0.0154   -9.5352 H         1 UNK         0.3040 
    121 H121       31.4653   -0.0002  -11.3178 H         1 UNK         0.0766 
    122 H122       32.2181   -1.9239   -9.9678 H         1 UNK         0.0812 
    123 H123       30.6349   -2.2848  -10.6353 H         1 UNK         0.0812 
    124 H124       30.7949   -1.8172   -8.9431 H         1 UNK         0.0812 
    125 H125       30.1416    1.9321   -9.1300 H         1 UNK         0.3205 
    126 H126       30.8164    3.5849   -7.8539 H         1 UNK         0.0754 
    127 H127       33.1235    4.4005   -7.8006 H         1 UNK         0.0769 
    128 H128       32.6711    3.9852   -9.4458 H         1 UNK         0.0769 
    129 H129       33.7221    2.9159   -8.5179 H         1 UNK         0.0769 
    130 H130       32.8399    0.6941   -7.1654 H         1 UNK         0.2981 
    131 H131       33.0594    1.3613   -4.3514 H         1 UNK         0.0541 
    132 H132       30.5632   -0.4175   -6.1050 H         1 UNK         0.3459 
    133 H133       29.7830   -1.0010   -4.6573 H         1 UNK         0.3459 
    134 H134       34.2736   -0.7459   -4.0848 H         1 UNK         0.0612 
    135 H135       34.9162    0.2264   -5.3694 H         1 UNK         0.0612 
    136 H136       34.5634   -3.9924   -5.7225 H         1 UNK         0.0624 
    137 H137       34.6372   -2.9864   -4.3059 H         1 UNK         0.0624 
@<TRIPOS>BOND
     1    1    2 1    
     2    1   72 1    
     3    1   73 1    
     4    1   74 1    
     5    2    3 2    
     6    2    4 am   BACKBONE|DICT|INTERRES
     7    4    5 1    
     8    4   75 1    
     9    5    6 1    
    10    5   35 1    
    11    5   76 1    
    12    6    7 1    
    13    6   77 1    
    14    6   78 1    
    15    7    8 1    
    16    8    9 1    
    17    8   79 1    
    18    8   80 1    
    19    9   10 ar   
    20    9   14 ar   
    21   10   11 ar   
    22   10   81 1    
    23   11   12 ar   
    24   11   71 1    
    25   12   13 ar   
    26   12   82 1    
    27   13   14 ar   
    28   13   15 1    
    29   14   83 1    
    30   15   16 1    
    31   15   84 1    
    32   15   85 1    
    33   16   17 1    
    34   17   18 1    
    35   17   86 1    
    36   17   87 1    
    37   18   19 1    
    38   18   37 1    
    39   18   88 1    
    40   19   20 am   BACKBONE|DICT|INTERRES
    41   19   89 1    
    42   20   21 2    
    43   20   22 1    
    44   22   23 1    
    45   22   24 1    
    46   22   90 1    
    47   23   91 1    
    48   23   92 1    
    49   23   93 1    
    50   24   25 am   BACKBONE|DICT|INTERRES
    51   24   94 1    
    52   25   26 2    
    53   25   27 1    
    54   27   28 1    
    55   27   29 1    
    56   27   95 1    
    57   28   96 1    
    58   28   97 1    
    59   28   98 1    
    60   29   30 am   BACKBONE|DICT|INTERRES
    61   29   99 1    
    62   30   31 2    
    63   30   32 1    
    64   32   33 1    
    65   32   34 1    
    66   32  100 1    
    67   33  101 1    
    68   33  102 1    
    69   33  103 1    
    70   34   35 am   BACKBONE|DICT|INTERRES
    71   34  104 1    
    72   35   36 2    
    73   37   38 2    
    74   37   39 am   BACKBONE|DICT|INTERRES
    75   39   40 1    
    76   39  105 1    
    77   40   41 1    
    78   40   42 1    
    79   40  106 1    
    80   41  107 1    
    81   41  108 1    
    82   41  109 1    
    83   42   43 2    
    84   42   44 am   BACKBONE|DICT|INTERRES
    85   44   45 1    
    86   44  110 1    
    87   45   46 1    
    88   45   47 1    
    89   45  111 1    
    90   46  112 1    
    91   46  113 1    
    92   46  114 1    
    93   47   48 2    
    94   47   49 am   BACKBONE|DICT|INTERRES
    95   49   50 1    
    96   49  115 1    
    97   50   51 1    
    98   50   52 1    
    99   50  116 1    
   100   51  117 1    
   101   51  118 1    
   102   51  119 1    
   103   52   53 2    
   104   52   54 am   BACKBONE|DICT|INTERRES
   105   54   55 1    
   106   54  120 1    
   107   55   56 1    
   108   55   57 1    
   109   55  121 1    
   110   56  122 1    
   111   56  123 1    
   112   56  124 1    
   113   57   58 2    
   114   57   59 am   BACKBONE|DICT|INTERRES
   115   59   60 1    
   116   59  125 1    
   117   60   61 1    
   118   60   62 1    
   119   60  126 1    
   120   61  127 1    
   121   61  128 1    
   122   61  129 1    
   123   62   63 2    
   124   62   64 am   BACKBONE|DICT|INTERRES
   125   64   65 1    
   126   64  130 1    
   127   65   66 1    
   128   65   69 1    
   129   65  131 1    
   130   66   67 am   BACKBONE|DICT|INTERRES
   131   66   68 2    
   132   67  132 1    
   133   67  133 1    
   134   69   70 1    
   135   69  134 1    
   136   69  135 1    
   137   70   71 1    
   138   71  136 1    
   139   71  137 1    
@<TRIPOS>SUBSTRUCTURE
     1 UNK         1 GROUP             0       ****    0 ROOT    
