@<TRIPOS>MOLECULE
3R137
137   139    1
SMALL
USER_CHARGES


@<TRIPOS>ATOM
      1 CA         26.1985    0.9449    1.4769 C.3       0 UNK        -0.2020 
      2 C          26.7944    0.1778    0.3057 C.2       0 UNK         0.4855 
      3 O          26.6117    0.5810   -0.8420 O.2       0 UNK        -0.5197 
      4 N          27.5102   -0.9166    0.5922 N.am      1 UNK        -0.4892 
      5 CA         28.1377   -1.8060   -0.3932 C.3       1 UNK         0.0835 
      6 C6         29.1304   -2.7867    0.2826 C.3       12 UNK        -0.0855 
      7 S7         30.4922   -1.9146    1.1297 S.3       12 UNK        -0.2931 
      8 C8         31.9546   -2.4724    0.1903 C.3       12 UNK         0.0378 
      9 C9         31.9238   -2.0711   -1.2813 C.ar      12 UNK        -0.0802 
     10 C10        32.1651   -3.0288   -2.2727 C.ar      12 UNK        -0.0944 
     11 C11        32.1745   -2.6670   -3.6235 C.ar      12 UNK        -0.0787 
     12 C12        31.9185   -1.3418   -3.9835 C.ar      12 UNK        -0.0862 
     13 C13        31.6637   -0.3784   -3.0042 C.ar      12 UNK        -0.0733 
     14 C14        31.6874   -0.7438   -1.6550 C.ar      12 UNK        -0.0832 
     15 C15        31.3460    1.0532   -3.4102 C.3       12 UNK         0.0240 
     16 S16        29.6532    1.5421   -2.9465 S.3       12 UNK        -0.2522 
     17 C17        28.6323    0.3100   -3.8259 C.3       12 UNK        -0.0967 
     18 CA         28.2126    0.7660   -5.2428 C.3       5 UNK         0.0660 
     19 N          27.8227   -0.3701   -6.0820 N.am      5 UNK        -0.4015 
     20 C          27.6354   -0.3131   -7.4082 C.2       4 UNK         0.4946 
     21 O          27.7820    0.7089   -8.0728 O.2       4 UNK        -0.5353 
     22 CA         27.1482   -1.5932   -8.1078 C.3       4 UNK         0.0277 
     23 CB         28.3327   -2.5255   -8.4027 C.3       4 UNK        -0.1981 
     24 N          26.1331   -2.3087   -7.3326 N.am      4 UNK        -0.4209 
     25 C          24.9232   -1.8151   -7.0275 C.2       3 UNK         0.4942 
     26 O          24.4911   -0.7504   -7.4670 O.2       3 UNK        -0.5208 
     27 CA         24.0791   -2.6103   -6.0115 C.3       3 UNK         0.0250 
     28 CB         23.1370   -3.5825   -6.7386 C.3       3 UNK        -0.1990 
     29 N          24.8799   -3.3473   -5.0230 N.am      3 UNK        -0.4232 
     30 C          25.7704   -2.7866   -4.1916 C.2       2 UNK         0.4993 
     31 O          25.9824   -1.5722   -4.1485 O.2       2 UNK        -0.5286 
     32 CA         26.6228   -3.7520   -3.3502 C.3       2 UNK         0.0209 
     33 CB         27.5271   -4.6019   -4.2607 C.3       2 UNK        -0.1931 
     34 N          27.4782   -3.0286   -2.4069 N.am      2 UNK        -0.4546 
     35 C          27.0839   -2.5897   -1.2059 C.2       1 UNK         0.5154 
     36 O          25.9723   -2.8269   -0.7230 O.2       1 UNK        -0.5181 
     37 C          27.1015    1.8319   -5.1978 C.2       5 UNK         0.5014 
     38 O          27.3981    3.0201   -5.3255 O.2       5 UNK        -0.5248 
     39 N          25.8382    1.3900   -5.0943 N.am      6 UNK        -0.4434 
     40 CA         24.6519    2.2490   -5.1899 C.3       6 UNK         0.0363 
     41 CB         23.3929    1.4306   -4.8643 C.3       6 UNK        -0.1936 
     42 C          24.5161    2.9498   -6.5576 C.2       6 UNK         0.5081 
     43 O          24.0393    4.0834   -6.6114 O.2       6 UNK        -0.5248 
     44 N          24.9734    2.2853   -7.6275 N.am      7 UNK        -0.4718 
     45 CA         25.0752    2.8279   -8.9856 C.3       7 UNK         0.0273 
     46 CB         24.9756    1.6639   -9.9872 C.3       7 UNK        -0.1935 
     47 C          26.3590    3.6515   -9.2300 C.2       7 UNK         0.5018 
     48 O          26.5227    4.1706  -10.3351 O.2       7 UNK        -0.5186 
     49 N          27.2393    3.7561   -8.2212 N.am      8 UNK        -0.4240 
     50 CA         28.5447    4.4292   -8.2271 C.3       8 UNK         0.0235 
     51 CB         28.3820    5.9527   -8.4186 C.3       8 UNK        -0.2000 
     52 C          29.5605    3.7980   -9.2024 C.2       8 UNK         0.4941 
     53 O          30.3447    4.5193   -9.8233 O.2       8 UNK        -0.5273 
     54 N          29.5392    2.4652   -9.3101 N.am      9 UNK        -0.4262 
     55 CA         30.4419    1.6500  -10.1193 C.3       9 UNK         0.0264 
     56 CB         29.5928    0.8631  -11.1346 C.3       9 UNK        -0.1955 
     57 C          31.2346    0.6870   -9.2199 C.2       9 UNK         0.5031 
     58 O          30.9258    0.5350   -8.0349 O.2       9 UNK        -0.5390 
     59 N          32.2413    0.0321   -9.8101 N.am      10 UNK        -0.4204 
     60 CA         32.9721   -1.0764   -9.1934 C.3       10 UNK         0.0237 
     61 CB         34.3458   -1.2127   -9.8708 C.3       10 UNK        -0.1985 
     62 C          32.1723   -2.3827   -9.3290 C.2       10 UNK         0.4970 
     63 O          31.4290   -2.5445  -10.3000 O.2       10 UNK        -0.4914 
     64 N          32.3641   -3.2992   -8.3737 N.am      11 UNK        -0.4285 
     65 CA         31.6933   -4.6115   -8.3314 C.3       11 UNK         0.1007 
     66 C          32.1900   -5.6357   -9.3948 C.2       11 UNK         0.5703 
     67 N          33.3012   -5.3997  -10.0828 N.am      11 UNK        -0.7361 
     68 O          31.5491   -6.6633   -9.6025 O.2       11 UNK        -0.4986 
     69 C69        31.7266   -5.2367   -6.9110 C.3       12 UNK        -0.0947 
     70 S70        30.9994   -4.1554   -5.6345 S.3       12 UNK        -0.2240 
     71 C71        32.4872   -3.6947   -4.6987 C.3       12 UNK         0.0194 
     72 H72        26.5701    1.9693    1.4818 H         1 UNK         0.0906 
     73 H73        25.1128    0.9765    1.3901 H         1 UNK         0.0906 
     74 H74        26.4492    0.4888    2.4345 H         1 UNK         0.0906 
     75 H75        27.6212   -1.1980    1.5556 H         1 UNK         0.3140 
     76 H76        28.6932   -1.1766   -1.0926 H         1 UNK         0.1085 
     77 H77        29.5528   -3.4774   -0.4501 H         1 UNK         0.0836 
     78 H78        28.6145   -3.4097    1.0160 H         1 UNK         0.0836 
     79 H79        32.0443   -3.5548    0.2965 H         1 UNK         0.0731 
     80 H80        32.8477   -2.0453    0.6483 H         1 UNK         0.0731 
     81 H81        32.3626   -4.0548   -1.9932 H         1 UNK         0.1312 
     82 H82        31.9092   -1.0652   -5.0296 H         1 UNK         0.1406 
     83 H83        31.4983    0.0034   -0.8957 H         1 UNK         0.1631 
     84 H84        31.4703    1.1917   -4.4857 H         1 UNK         0.0717 
     85 H85        32.0546    1.7283   -2.9287 H         1 UNK         0.0717 
     86 H86        29.1770   -0.6315   -3.8822 H         1 UNK         0.0934 
     87 H87        27.7572    0.0956   -3.2105 H         1 UNK         0.0934 
     88 H88        29.0820    1.2187   -5.7258 H         1 UNK         0.0739 
     89 H89        27.5626   -1.2129   -5.5893 H         1 UNK         0.3093 
     90 H90        26.6982   -1.3003   -9.0589 H         1 UNK         0.0818 
     91 H91        28.0213   -3.4011   -8.9722 H         1 UNK         0.0819 
     92 H92        29.0887   -2.0082   -8.9946 H         1 UNK         0.0819 
     93 H93        28.8179   -2.8706   -7.4890 H         1 UNK         0.0819 
     94 H94        26.3940   -3.2053   -6.9504 H         1 UNK         0.3041 
     95 H95        23.4694   -1.8890   -5.4635 H         1 UNK         0.0784 
     96 H96        23.6881   -4.3511   -7.2821 H         1 UNK         0.0793 
     97 H97        22.5153   -3.0538   -7.4629 H         1 UNK         0.0793 
     98 H98        22.4636   -4.0805   -6.0406 H         1 UNK         0.0793 
     99 H99        24.7609   -4.3504   -5.0060 H         1 UNK         0.3024 
    100 H100       25.9506   -4.4119   -2.7962 H         1 UNK         0.1171 
    101 H101       28.1936   -5.2386   -3.6782 H         1 UNK         0.0786 
    102 H102       26.9427   -5.2607   -4.9039 H         1 UNK         0.0786 
    103 H103       28.1444   -3.9783   -4.9077 H         1 UNK         0.0786 
    104 H104       28.4045   -2.7957   -2.7329 H         1 UNK         0.2977 
    105 H105       25.6860    0.3965   -4.9545 H         1 UNK         0.3127 
    106 H106       24.7539    3.0289   -4.4323 H         1 UNK         0.0770 
    107 H107       23.2160    0.6482   -5.6019 H         1 UNK         0.0814 
    108 H108       22.5086    2.0690   -4.8520 H         1 UNK         0.0814 
    109 H109       23.4666    0.9591   -3.8841 H         1 UNK         0.0814 
    110 H110       25.3009    1.3346   -7.4995 H         1 UNK         0.2983 
    111 H111       24.2296    3.4966   -9.1603 H         1 UNK         0.0947 
    112 H112       24.9611    2.0298  -11.0146 H         1 UNK         0.0806 
    113 H113       24.0632    1.0865   -9.8361 H         1 UNK         0.0806 
    114 H114       25.8211    0.9817   -9.8974 H         1 UNK         0.0806 
    115 H115       27.0143    3.2816   -7.3537 H         1 UNK         0.3000 
    116 H116       28.9614    4.2722   -7.2311 H         1 UNK         0.0850 
    117 H117       29.3321    6.4683   -8.2740 H         1 UNK         0.0810 
    118 H118       27.6766    6.3692   -7.6995 H         1 UNK         0.0810 
    119 H119       28.0281    6.2006   -9.4196 H         1 UNK         0.0810 
    120 H120       28.8869    1.9265   -8.7374 H         1 UNK         0.3040 
    121 H121       31.1541    2.2794  -10.6567 H         1 UNK         0.0766 
    122 H122       28.8956    0.1879  -10.6361 H         1 UNK         0.0812 
    123 H123       30.2158    0.2587  -11.7947 H         1 UNK         0.0812 
    124 H124       29.0102    1.5348  -11.7655 H         1 UNK         0.0812 
    125 H125       32.4038    0.1808  -10.7956 H         1 UNK         0.3205 
    126 H126       33.1241   -0.8601   -8.1333 H         1 UNK         0.0754 
    127 H127       34.9229   -0.2917   -9.7842 H         1 UNK         0.0769 
    128 H128       34.2531   -1.4516  -10.9313 H         1 UNK         0.0769 
    129 H129       34.9349   -2.0055   -9.4079 H         1 UNK         0.0769 
    130 H130       33.0066   -3.1052   -7.6214 H         1 UNK         0.2981 
    131 H131       30.6437   -4.4355   -8.5739 H         1 UNK         0.0541 
    132 H132       33.8332   -4.5599   -9.9250 H         1 UNK         0.3459 
    133 H133       33.6069   -6.0703  -10.7702 H         1 UNK         0.3459 
    134 H134       32.7490   -5.4996   -6.6336 H         1 UNK         0.0612 
    135 H135       31.1619   -6.1707   -6.8950 H         1 UNK         0.0612 
    136 H136       32.9247   -4.5922   -4.2585 H         1 UNK         0.0624 
    137 H137       33.2352   -3.2861   -5.3791 H         1 UNK         0.0624 
@<TRIPOS>BOND
     1    1    2 1    
     2    1   72 1    
     3    1   73 1    
     4    1   74 1    
     5    2    3 2    
     6    2    4 am   BACKBONE|DICT|INTERRES
     7    4    5 1    
     8    4   75 1    
     9    5    6 1    
    10    5   35 1    
    11    5   76 1    
    12    6    7 1    
    13    6   77 1    
    14    6   78 1    
    15    7    8 1    
    16    8    9 1    
    17    8   79 1    
    18    8   80 1    
    19    9   10 ar   
    20    9   14 ar   
    21   10   11 ar   
    22   10   81 1    
    23   11   12 ar   
    24   11   71 1    
    25   12   13 ar   
    26   12   82 1    
    27   13   14 ar   
    28   13   15 1    
    29   14   83 1    
    30   15   16 1    
    31   15   84 1    
    32   15   85 1    
    33   16   17 1    
    34   17   18 1    
    35   17   86 1    
    36   17   87 1    
    37   18   19 1    
    38   18   37 1    
    39   18   88 1    
    40   19   20 am   BACKBONE|DICT|INTERRES
    41   19   89 1    
    42   20   21 2    
    43   20   22 1    
    44   22   23 1    
    45   22   24 1    
    46   22   90 1    
    47   23   91 1    
    48   23   92 1    
    49   23   93 1    
    50   24   25 am   BACKBONE|DICT|INTERRES
    51   24   94 1    
    52   25   26 2    
    53   25   27 1    
    54   27   28 1    
    55   27   29 1    
    56   27   95 1    
    57   28   96 1    
    58   28   97 1    
    59   28   98 1    
    60   29   30 am   BACKBONE|DICT|INTERRES
    61   29   99 1    
    62   30   31 2    
    63   30   32 1    
    64   32   33 1    
    65   32   34 1    
    66   32  100 1    
    67   33  101 1    
    68   33  102 1    
    69   33  103 1    
    70   34   35 am   BACKBONE|DICT|INTERRES
    71   34  104 1    
    72   35   36 2    
    73   37   38 2    
    74   37   39 am   BACKBONE|DICT|INTERRES
    75   39   40 1    
    76   39  105 1    
    77   40   41 1    
    78   40   42 1    
    79   40  106 1    
    80   41  107 1    
    81   41  108 1    
    82   41  109 1    
    83   42   43 2    
    84   42   44 am   BACKBONE|DICT|INTERRES
    85   44   45 1    
    86   44  110 1    
    87   45   46 1    
    88   45   47 1    
    89   45  111 1    
    90   46  112 1    
    91   46  113 1    
    92   46  114 1    
    93   47   48 2    
    94   47   49 am   BACKBONE|DICT|INTERRES
    95   49   50 1    
    96   49  115 1    
    97   50   51 1    
    98   50   52 1    
    99   50  116 1    
   100   51  117 1    
   101   51  118 1    
   102   51  119 1    
   103   52   53 2    
   104   52   54 am   BACKBONE|DICT|INTERRES
   105   54   55 1    
   106   54  120 1    
   107   55   56 1    
   108   55   57 1    
   109   55  121 1    
   110   56  122 1    
   111   56  123 1    
   112   56  124 1    
   113   57   58 2    
   114   57   59 am   BACKBONE|DICT|INTERRES
   115   59   60 1    
   116   59  125 1    
   117   60   61 1    
   118   60   62 1    
   119   60  126 1    
   120   61  127 1    
   121   61  128 1    
   122   61  129 1    
   123   62   63 2    
   124   62   64 am   BACKBONE|DICT|INTERRES
   125   64   65 1    
   126   64  130 1    
   127   65   66 1    
   128   65   69 1    
   129   65  131 1    
   130   66   67 am   BACKBONE|DICT|INTERRES
   131   66   68 2    
   132   67  132 1    
   133   67  133 1    
   134   69   70 1    
   135   69  134 1    
   136   69  135 1    
   137   70   71 1    
   138   71  136 1    
   139   71  137 1    
@<TRIPOS>SUBSTRUCTURE
     1 UNK         1 GROUP             0       ****    0 ROOT    
