@<TRIPOS>MOLECULE
3R137
137   139    1
SMALL
USER_CHARGES


@<TRIPOS>ATOM
      1 CA         25.1820   -6.7531   -4.3600 C.3       0 UNK        -0.2020 
      2 C          25.6291   -6.1936   -3.0178 C.2       0 UNK         0.4855 
      3 O          25.2646   -6.7382   -1.9747 O.2       0 UNK        -0.5197 
      4 N          26.4142   -5.1116   -3.0364 N.am      1 UNK        -0.4892 
      5 CA         26.9274   -4.4155   -1.8597 C.3       1 UNK         0.0835 
      6 C6         28.3262   -4.9515   -1.4706 C.3       12 UNK        -0.0855 
      7 S7         29.0552   -4.1476   -0.0005 S.3       12 UNK        -0.2931 
      8 C8         30.8302   -4.1482   -0.4172 C.3       12 UNK         0.0378 
      9 C9         31.1494   -3.2516   -1.6066 C.ar      12 UNK        -0.0802 
     10 C10        31.4147   -3.8126   -2.8606 C.ar      12 UNK        -0.0944 
     11 C11        31.7048   -2.9935   -3.9536 C.ar      12 UNK        -0.0787 
     12 C12        31.7536   -1.6095   -3.7817 C.ar      12 UNK        -0.0862 
     13 C13        31.4820   -1.0308   -2.5381 C.ar      12 UNK        -0.0733 
     14 C14        31.1854   -1.8615   -1.4519 C.ar      12 UNK        -0.0832 
     15 C15        31.4995    0.4857   -2.3538 C.3       12 UNK         0.0240 
     16 S16        30.8062    1.4211   -3.7638 S.3       12 UNK        -0.2522 
     17 C17        29.1064    0.7627   -3.8475 C.3       12 UNK        -0.0967 
     18 CA         28.5835    0.6781   -5.3050 C.3       5 UNK         0.0660 
     19 N          27.6793   -0.4648   -5.4875 N.am      5 UNK        -0.4015 
     20 C          27.1481   -0.8614   -6.6543 C.2       4 UNK         0.4946 
     21 O          27.3962   -0.3460   -7.7420 O.2       4 UNK        -0.5353 
     22 CA         26.1009   -1.9827   -6.5910 C.3       4 UNK         0.0277 
     23 CB         26.7669   -3.3679   -6.5858 C.3       4 UNK        -0.1981 
     24 N          25.2237   -1.8289   -5.4282 N.am      4 UNK        -0.4209 
     25 C          24.2672   -0.8928   -5.3342 C.2       3 UNK         0.4942 
     26 O          23.9801   -0.1173   -6.2456 O.2       3 UNK        -0.5208 
     27 CA         23.5363   -0.7706   -3.9846 C.3       3 UNK         0.0250 
     28 CB         22.3657   -1.7640   -3.9130 C.3       3 UNK        -0.1990 
     29 N          24.4198   -0.9697   -2.8321 N.am      3 UNK        -0.4232 
     30 C          25.4528   -0.1734   -2.5194 C.2       2 UNK         0.4993 
     31 O          25.7294    0.8545   -3.1344 O.2       2 UNK        -0.5286 
     32 CA         26.3695   -0.6260   -1.3682 C.3       2 UNK         0.0209 
     33 CB         25.8955   -0.0256   -0.0357 C.3       2 UNK        -0.1931 
     34 N          26.4920   -2.0828   -1.2332 N.am      2 UNK        -0.4546 
     35 C          26.9123   -2.9149   -2.1969 C.2       1 UNK         0.5154 
     36 O          27.2313   -2.5403   -3.3299 O.2       1 UNK        -0.5181 
     37 C          27.9501    2.0187   -5.7457 C.2       5 UNK         0.5014 
     38 O          28.6368    2.8656   -6.3185 O.2       5 UNK        -0.5248 
     39 N          26.6497    2.1912   -5.4694 N.am      6 UNK        -0.4434 
     40 CA         25.8489    3.3292   -5.9194 C.3       6 UNK         0.0363 
     41 CB         24.5338    3.3761   -5.1252 C.3       6 UNK        -0.1936 
     42 C          25.5688    3.2952   -7.4319 C.2       6 UNK         0.5081 
     43 O          25.5559    4.3530   -8.0623 O.2       6 UNK        -0.5248 
     44 N          25.3409    2.0958   -7.9864 N.am      7 UNK        -0.4718 
     45 CA         25.0798    1.8785   -9.4118 C.3       7 UNK         0.0273 
     46 CB         24.5110    0.4673   -9.6302 C.3       7 UNK        -0.1935 
     47 C          26.3183    2.1118  -10.2932 C.2       7 UNK         0.5018 
     48 O          26.1888    2.7266  -11.3538 O.2       7 UNK        -0.5186 
     49 N          27.4868    1.6350   -9.8464 N.am      8 UNK        -0.4240 
     50 CA         28.7730    1.8250  -10.5103 C.3       8 UNK         0.0235 
     51 CB         29.0697    0.6247  -11.4260 C.3       8 UNK        -0.2000 
     52 C          29.8536    1.9802   -9.4389 C.2       8 UNK         0.4941 
     53 O          29.9271    1.1473   -8.5344 O.2       8 UNK        -0.5273 
     54 N          30.6868    3.0229   -9.5669 N.am      9 UNK        -0.4262 
     55 CA         31.7757    3.3463   -8.6393 C.3       9 UNK         0.0264 
     56 CB         32.5063    4.6096   -9.1237 C.3       9 UNK        -0.1955 
     57 C          32.7563    2.1729   -8.4797 C.2       9 UNK         0.5031 
     58 O          33.3082    1.7056   -9.4796 O.2       9 UNK        -0.5390 
     59 N          32.8984    1.6881   -7.2376 N.am      10 UNK        -0.4204 
     60 CA         33.6625    0.4965   -6.8427 C.3       10 UNK         0.0237 
     61 CB         35.1779    0.7496   -6.9951 C.3       10 UNK        -0.1985 
     62 C          33.2005   -0.7977   -7.5523 C.2       10 UNK         0.4970 
     63 O          34.0163   -1.6967   -7.7623 O.2       10 UNK        -0.4914 
     64 N          31.9112   -0.8609   -7.9173 N.am      11 UNK        -0.4285 
     65 CA         31.2760   -1.9145   -8.7264 C.3       11 UNK         0.1007 
     66 C          31.7443   -1.9416  -10.2142 C.2       11 UNK         0.5703 
     67 N          32.4165   -0.9151  -10.7260 N.am      11 UNK        -0.7361 
     68 O          31.4666   -2.8972  -10.9353 O.2       11 UNK        -0.4986 
     69 C69        31.2874   -3.3224   -8.0582 C.3       12 UNK        -0.0947 
     70 S70        30.5106   -3.3242   -6.4078 S.3       12 UNK        -0.2240 
     71 C71        31.9533   -3.5848   -5.3299 C.3       12 UNK         0.0194 
     72 H72        24.1017   -6.6453   -4.4709 H         1 UNK         0.0906 
     73 H73        25.6642   -6.2442   -5.1960 H         1 UNK         0.0906 
     74 H74        25.4277   -7.8144   -4.4246 H         1 UNK         0.0906 
     75 H75        26.6742   -4.6741   -3.9112 H         1 UNK         0.3140 
     76 H76        26.2465   -4.5774   -1.0206 H         1 UNK         0.1085 
     77 H77        28.9981   -4.8593   -2.3231 H         1 UNK         0.0836 
     78 H78        28.2620   -6.0206   -1.2615 H         1 UNK         0.0836 
     79 H79        31.1540   -5.1729   -0.6069 H         1 UNK         0.0731 
     80 H80        31.3957   -3.8082    0.4517 H         1 UNK         0.0731 
     81 H81        31.3818   -4.8858   -2.9898 H         1 UNK         0.1312 
     82 H82        31.9721   -0.9833   -4.6332 H         1 UNK         0.1406 
     83 H83        30.9737   -1.4294   -0.4829 H         1 UNK         0.1631 
     84 H84        32.5303    0.8050   -2.1963 H         1 UNK         0.0717 
     85 H85        30.9471    0.7659   -1.4554 H         1 UNK         0.0717 
     86 H86        29.1019   -0.2318   -3.3999 H         1 UNK         0.0934 
     87 H87        28.4566    1.3679   -3.2120 H         1 UNK         0.0934 
     88 H88        29.4280    0.4861   -5.9704 H         1 UNK         0.0739 
     89 H89        27.4461   -0.9988   -4.6572 H         1 UNK         0.3093 
     90 H90        25.4861   -1.9152   -7.4911 H         1 UNK         0.0818 
     91 H91        27.3709   -3.5055   -7.4838 H         1 UNK         0.0819 
     92 H92        26.0244   -4.1652   -6.5713 H         1 UNK         0.0819 
     93 H93        27.4317   -3.5026   -5.7330 H         1 UNK         0.0819 
     94 H94        25.4578   -2.3695   -4.6068 H         1 UNK         0.3041 
     95 H95        23.1307    0.2416   -3.9216 H         1 UNK         0.0784 
     96 H96        21.6831   -1.6221   -4.7524 H         1 UNK         0.0793 
     97 H97        22.7084   -2.7991   -3.9433 H         1 UNK         0.0793 
     98 H98        21.7853   -1.6283   -3.0002 H         1 UNK         0.0793 
     99 H99        24.2573   -1.7879   -2.2635 H         1 UNK         0.3024 
    100 H100       27.3670   -0.2368   -1.5795 H         1 UNK         0.1171 
    101 H101       26.5942   -0.2484    0.7711 H         1 UNK         0.0786 
    102 H102       25.8184    1.0607   -0.1030 H         1 UNK         0.0786 
    103 H103       24.9145   -0.4049    0.2535 H         1 UNK         0.0786 
    104 H104       26.2638   -2.4689   -0.3278 H         1 UNK         0.2977 
    105 H105       26.1861    1.5108   -4.8725 H         1 UNK         0.3127 
    106 H106       26.4076    4.2428   -5.7047 H         1 UNK         0.0770 
    107 H107       23.9305    2.4828   -5.2895 H         1 UNK         0.0814 
    108 H108       23.9311    4.2363   -5.4193 H         1 UNK         0.0814 
    109 H109       24.7203    3.4604   -4.0543 H         1 UNK         0.0814 
    110 H110       25.3332    1.2766   -7.3904 H         1 UNK         0.2983 
    111 H111       24.3175    2.5969   -9.7220 H         1 UNK         0.0947 
    112 H112       24.2526    0.3103  -10.6783 H         1 UNK         0.0806 
    113 H113       23.6049    0.3088   -9.0451 H         1 UNK         0.0806 
    114 H114       25.2279   -0.3057   -9.3537 H         1 UNK         0.0806 
    115 H115       27.5203    1.1103   -8.9715 H         1 UNK         0.3000 
    116 H116       28.7471    2.7348  -11.1147 H         1 UNK         0.0850 
    117 H117       30.0481    0.7239  -11.8982 H         1 UNK         0.0810 
    118 H118       28.3296    0.5412  -12.2219 H         1 UNK         0.0810 
    119 H119       29.0685   -0.3128  -10.8680 H         1 UNK         0.0810 
    120 H120       30.5791    3.6366  -10.3611 H         1 UNK         0.3040 
    121 H121       31.3195    3.5644   -7.6708 H         1 UNK         0.0766 
    122 H122       31.8307    5.4634   -9.1808 H         1 UNK         0.0812 
    123 H123       32.9516    4.4652  -10.1092 H         1 UNK         0.0812 
    124 H124       33.3116    4.8803   -8.4394 H         1 UNK         0.0812 
    125 H125       32.3677    2.1270   -6.4966 H         1 UNK         0.3205 
    126 H126       33.4642    0.3483   -5.7810 H         1 UNK         0.0754 
    127 H127       35.7577   -0.0706   -6.5697 H         1 UNK         0.0769 
    128 H128       35.4822    1.6600   -6.4786 H         1 UNK         0.0769 
    129 H129       35.4688    0.8445   -8.0418 H         1 UNK         0.0769 
    130 H130       31.3205   -0.0459   -7.7809 H         1 UNK         0.2981 
    131 H131       30.2299   -1.6122   -8.7893 H         1 UNK         0.0541 
    132 H132       32.6577   -0.1076  -10.1617 H         1 UNK         0.3459 
    133 H133       32.7020   -0.9517  -11.6910 H         1 UNK         0.3459 
    134 H134       30.7247   -4.0319   -8.6669 H         1 UNK         0.0612 
    135 H135       32.3010   -3.7208   -8.0000 H         1 UNK         0.0612 
    136 H136       32.1658   -4.6530   -5.2670 H         1 UNK         0.0624 
    137 H137       32.8391   -3.1181   -5.7599 H         1 UNK         0.0624 
@<TRIPOS>BOND
     1    1    2 1    
     2    1   72 1    
     3    1   73 1    
     4    1   74 1    
     5    2    3 2    
     6    2    4 am   BACKBONE|DICT|INTERRES
     7    4    5 1    
     8    4   75 1    
     9    5    6 1    
    10    5   35 1    
    11    5   76 1    
    12    6    7 1    
    13    6   77 1    
    14    6   78 1    
    15    7    8 1    
    16    8    9 1    
    17    8   79 1    
    18    8   80 1    
    19    9   10 ar   
    20    9   14 ar   
    21   10   11 ar   
    22   10   81 1    
    23   11   12 ar   
    24   11   71 1    
    25   12   13 ar   
    26   12   82 1    
    27   13   14 ar   
    28   13   15 1    
    29   14   83 1    
    30   15   16 1    
    31   15   84 1    
    32   15   85 1    
    33   16   17 1    
    34   17   18 1    
    35   17   86 1    
    36   17   87 1    
    37   18   19 1    
    38   18   37 1    
    39   18   88 1    
    40   19   20 am   BACKBONE|DICT|INTERRES
    41   19   89 1    
    42   20   21 2    
    43   20   22 1    
    44   22   23 1    
    45   22   24 1    
    46   22   90 1    
    47   23   91 1    
    48   23   92 1    
    49   23   93 1    
    50   24   25 am   BACKBONE|DICT|INTERRES
    51   24   94 1    
    52   25   26 2    
    53   25   27 1    
    54   27   28 1    
    55   27   29 1    
    56   27   95 1    
    57   28   96 1    
    58   28   97 1    
    59   28   98 1    
    60   29   30 am   BACKBONE|DICT|INTERRES
    61   29   99 1    
    62   30   31 2    
    63   30   32 1    
    64   32   33 1    
    65   32   34 1    
    66   32  100 1    
    67   33  101 1    
    68   33  102 1    
    69   33  103 1    
    70   34   35 am   BACKBONE|DICT|INTERRES
    71   34  104 1    
    72   35   36 2    
    73   37   38 2    
    74   37   39 am   BACKBONE|DICT|INTERRES
    75   39   40 1    
    76   39  105 1    
    77   40   41 1    
    78   40   42 1    
    79   40  106 1    
    80   41  107 1    
    81   41  108 1    
    82   41  109 1    
    83   42   43 2    
    84   42   44 am   BACKBONE|DICT|INTERRES
    85   44   45 1    
    86   44  110 1    
    87   45   46 1    
    88   45   47 1    
    89   45  111 1    
    90   46  112 1    
    91   46  113 1    
    92   46  114 1    
    93   47   48 2    
    94   47   49 am   BACKBONE|DICT|INTERRES
    95   49   50 1    
    96   49  115 1    
    97   50   51 1    
    98   50   52 1    
    99   50  116 1    
   100   51  117 1    
   101   51  118 1    
   102   51  119 1    
   103   52   53 2    
   104   52   54 am   BACKBONE|DICT|INTERRES
   105   54   55 1    
   106   54  120 1    
   107   55   56 1    
   108   55   57 1    
   109   55  121 1    
   110   56  122 1    
   111   56  123 1    
   112   56  124 1    
   113   57   58 2    
   114   57   59 am   BACKBONE|DICT|INTERRES
   115   59   60 1    
   116   59  125 1    
   117   60   61 1    
   118   60   62 1    
   119   60  126 1    
   120   61  127 1    
   121   61  128 1    
   122   61  129 1    
   123   62   63 2    
   124   62   64 am   BACKBONE|DICT|INTERRES
   125   64   65 1    
   126   64  130 1    
   127   65   66 1    
   128   65   69 1    
   129   65  131 1    
   130   66   67 am   BACKBONE|DICT|INTERRES
   131   66   68 2    
   132   67  132 1    
   133   67  133 1    
   134   69   70 1    
   135   69  134 1    
   136   69  135 1    
   137   70   71 1    
   138   71  136 1    
   139   71  137 1    
@<TRIPOS>SUBSTRUCTURE
     1 UNK         1 GROUP             0       ****    0 ROOT    
