@<TRIPOS>MOLECULE
3R137
137   139    1
SMALL
USER_CHARGES


@<TRIPOS>ATOM
      1 CA         27.5440   -6.3696   -5.4851 C.3       0 UNK        -0.2020 
      2 C          27.2959   -5.6341   -4.1771 C.2       0 UNK         0.4855 
      3 O          26.1425   -5.4659   -3.7786 O.2       0 UNK        -0.5197 
      4 N          28.3692   -5.1884   -3.5088 N.am      1 UNK        -0.4892 
      5 CA         28.3303   -4.3975   -2.2732 C.3       1 UNK         0.0835 
      6 C6         29.7576   -4.1696   -1.7160 C.3       12 UNK        -0.0855 
      7 S7         29.7598   -3.5313   -0.0013 S.3       12 UNK        -0.2931 
      8 C8         31.4184   -2.7740    0.1426 C.3       12 UNK         0.0378 
      9 C9         31.6837   -1.7474   -0.9506 C.ar      12 UNK        -0.0802 
     10 C10        32.7139   -1.9499   -1.8722 C.ar      12 UNK        -0.0944 
     11 C11        32.8900   -1.0734   -2.9488 C.ar      12 UNK        -0.0787 
     12 C12        32.0324    0.0242   -3.0850 C.ar      12 UNK        -0.0862 
     13 C13        31.0119    0.2527   -2.1561 C.ar      12 UNK        -0.0733 
     14 C14        30.8625   -0.6255   -1.0767 C.ar      12 UNK        -0.0832 
     15 C15        30.0469    1.4193   -2.3437 C.3       12 UNK         0.0240 
     16 S16        28.3223    0.8548   -2.2186 S.3       12 UNK        -0.2522 
     17 C17        27.3815    2.1302   -3.1116 C.3       12 UNK        -0.0967 
     18 CA         27.4425    2.0218   -4.6619 C.3       5 UNK         0.0660 
     19 N          27.5552    0.6502   -5.1707 N.am      5 UNK        -0.4015 
     20 C          27.7934    0.3249   -6.4503 C.2       4 UNK         0.4946 
     21 O          27.9664    1.1477   -7.3487 O.2       4 UNK        -0.5353 
     22 CA         27.7748   -1.1694   -6.8001 C.3       4 UNK         0.0277 
     23 CB         29.1344   -1.8226   -6.5042 C.3       4 UNK        -0.1981 
     24 N          26.7047   -1.8704   -6.0874 N.am      4 UNK        -0.4209 
     25 C          25.4008   -1.7117   -6.3672 C.2       3 UNK         0.4942 
     26 O          24.9823   -1.0091   -7.2867 O.2       3 UNK        -0.5208 
     27 CA         24.3849   -2.4132   -5.4501 C.3       3 UNK         0.0250 
     28 CB         24.0551   -3.8162   -5.9821 C.3       3 UNK        -0.1990 
     29 N          24.8301   -2.4996   -4.0578 N.am      3 UNK        -0.4232 
     30 C          25.0217   -1.4355   -3.2625 C.2       2 UNK         0.4993 
     31 O          24.8076   -0.2740   -3.6141 O.2       2 UNK        -0.5286 
     32 CA         25.5853   -1.7006   -1.8543 C.3       2 UNK         0.0209 
     33 CB         24.4378   -1.8657   -0.8456 C.3       2 UNK        -0.1931 
     34 N          26.4856   -2.8571   -1.7578 N.am      2 UNK        -0.4546 
     35 C          27.5731   -3.0731   -2.5137 C.2       1 UNK         0.5154 
     36 O          27.9457   -2.3191   -3.4153 O.2       1 UNK        -0.5181 
     37 C          26.2388    2.7472   -5.2931 C.2       5 UNK         0.5014 
     38 O          26.3869    3.8775   -5.7578 O.2       5 UNK        -0.5248 
     39 N          25.0818    2.0662   -5.3240 N.am      6 UNK        -0.4434 
     40 CA         23.8377    2.5423   -5.9352 C.3       6 UNK         0.0363 
     41 CB         22.7038    1.5524   -5.6253 C.3       6 UNK        -0.1936 
     42 C          23.9544    2.7733   -7.4518 C.2       6 UNK         0.5081 
     43 O          23.4153    3.7587   -7.9559 O.2       6 UNK        -0.5248 
     44 N          24.6732    1.8816   -8.1476 N.am      7 UNK        -0.4718 
     45 CA         24.9840    1.9994   -9.5755 C.3       7 UNK         0.0273 
     46 CB         25.4233    0.6233  -10.1030 C.3       7 UNK        -0.1935 
     47 C          26.0636    3.0525   -9.8908 C.2       7 UNK         0.5018 
     48 O          26.2007    3.4257  -11.0567 O.2       7 UNK        -0.5186 
     49 N          26.8202    3.4817   -8.8680 N.am      8 UNK        -0.4240 
     50 CA         28.0260    4.3170   -8.9302 C.3       8 UNK         0.0235 
     51 CB         27.6890    5.7487   -9.3984 C.3       8 UNK        -0.2000 
     52 C          29.1396    3.6454   -9.7589 C.2       8 UNK         0.4941 
     53 O          29.7647    4.2919  -10.6026 O.2       8 UNK        -0.5273 
     54 N          29.3377    2.3455   -9.5153 N.am      9 UNK        -0.4262 
     55 CA         30.2608    1.4673  -10.2270 C.3       9 UNK         0.0264 
     56 CB         29.4389    0.3250  -10.8514 C.3       9 UNK        -0.1955 
     57 C          31.3085    0.9019   -9.2590 C.2       9 UNK         0.5031 
     58 O          31.1519    1.0003   -8.0392 O.2       9 UNK        -0.5390 
     59 N          32.3539    0.2861   -9.8243 N.am      10 UNK        -0.4204 
     60 CA         33.3371   -0.4990   -9.0782 C.3       10 UNK         0.0237 
     61 CB         34.5740   -0.7428   -9.9582 C.3       10 UNK        -0.1985 
     62 C          32.7187   -1.8325   -8.6281 C.2       10 UNK         0.4970 
     63 O          32.0221   -2.4759   -9.4172 O.2       10 UNK        -0.4914 
     64 N          32.9890   -2.2185   -7.3788 N.am      11 UNK        -0.4285 
     65 CA         32.5497   -3.4870   -6.7855 C.3       11 UNK         0.1007 
     66 C          33.3247   -4.7214   -7.3300 C.2       11 UNK         0.5703 
     67 N          32.7679   -5.9160   -7.1796 N.am      11 UNK        -0.7361 
     68 O          34.4264   -4.6141   -7.8672 O.2       11 UNK        -0.4986 
     69 C69        32.5459   -3.4084   -5.2360 C.3       12 UNK        -0.0947 
     70 S70        34.1783   -3.0433   -4.4969 S.3       12 UNK        -0.2240 
     71 C71        33.9960   -1.3017   -3.9759 C.3       12 UNK         0.0194 
     72 H72        27.0554   -7.3433   -5.4660 H         1 UNK         0.0906 
     73 H73        27.1354   -5.7996   -6.3190 H         1 UNK         0.0906 
     74 H74        28.6062   -6.5280   -5.6700 H         1 UNK         0.0906 
     75 H75        29.2880   -5.3406   -3.8981 H         1 UNK         0.3140 
     76 H76        27.7742   -4.9892   -1.5426 H         1 UNK         0.1085 
     77 H77        30.3111   -3.5008   -2.3771 H         1 UNK         0.0836 
     78 H78        30.3111   -5.1099   -1.7091 H         1 UNK         0.0836 
     79 H79        32.1684   -3.5663    0.1222 H         1 UNK         0.0731 
     80 H80        31.5063   -2.2911    1.1168 H         1 UNK         0.0731 
     81 H81        33.3594   -2.8115   -1.7712 H         1 UNK         0.1312 
     82 H82        32.1521    0.6967   -3.9236 H         1 UNK         0.1406 
     83 H83        30.0628   -0.4718   -0.3648 H         1 UNK         0.1631 
     84 H84        30.1994    1.8879   -3.3170 H         1 UNK         0.0717 
     85 H85        30.2383    2.1818   -1.5879 H         1 UNK         0.0717 
     86 H86        26.3534    2.0369   -2.7541 H         1 UNK         0.0934 
     87 H87        27.7173    3.1170   -2.7875 H         1 UNK         0.0934 
     88 H88        28.3440    2.5428   -4.9915 H         1 UNK         0.0739 
     89 H89        27.4486   -0.0891   -4.4879 H         1 UNK         0.3093 
     90 H90        27.5850   -1.2597   -7.8719 H         1 UNK         0.0818 
     91 H91        29.1221   -2.8878   -6.7338 H         1 UNK         0.0819 
     92 H92        29.9187   -1.3676   -7.1105 H         1 UNK         0.0819 
     93 H93        29.4283   -1.7053   -5.4608 H         1 UNK         0.0819 
     94 H94        26.9746   -2.3854   -5.2563 H         1 UNK         0.3041 
     95 H95        23.4668   -1.8223   -5.4653 H         1 UNK         0.0784 
     96 H96        23.6557   -3.7627   -6.9959 H         1 UNK         0.0793 
     97 H97        24.9377   -4.4550   -6.0147 H         1 UNK         0.0793 
     98 H98        23.3054   -4.3105   -5.3642 H         1 UNK         0.0793 
     99 H99        25.0660   -3.4204   -3.7069 H         1 UNK         0.3024 
    100 H100       26.1575   -0.8188   -1.5674 H         1 UNK         0.1171 
    101 H101       24.8130   -1.9381    0.1754 H         1 UNK         0.0786 
    102 H102       23.7627   -1.0091   -0.8794 H         1 UNK         0.0786 
    103 H103       23.8438   -2.7572   -1.0512 H         1 UNK         0.0786 
    104 H104       26.2458   -3.5465   -1.0598 H         1 UNK         0.2977 
    105 H105       25.0420    1.1593   -4.8624 H         1 UNK         0.3127 
    106 H106       23.5910    3.5005   -5.4732 H         1 UNK         0.0770 
    107 H107       22.9008    0.5686   -6.0526 H         1 UNK         0.0814 
    108 H108       21.7561    1.9032   -6.0357 H         1 UNK         0.0814 
    109 H109       22.5669    1.4285   -4.5508 H         1 UNK         0.0814 
    110 H110       25.0272    1.0571   -7.6728 H         1 UNK         0.2983 
    111 H111       24.0756    2.2961  -10.1045 H         1 UNK         0.0947 
    112 H112       26.3240    0.2703   -9.5992 H         1 UNK         0.0806 
    113 H113       25.6405    0.6618  -11.1713 H         1 UNK         0.0806 
    114 H114       24.6439   -0.1249   -9.9577 H         1 UNK         0.0806 
    115 H115       26.6239    3.0857   -7.9569 H         1 UNK         0.3000 
    116 H116       28.4025    4.3826   -7.9081 H         1 UNK         0.0850 
    117 H117       28.5636    6.3965   -9.3289 H         1 UNK         0.0810 
    118 H118       26.9072    6.1920   -8.7817 H         1 UNK         0.0810 
    119 H119       27.3520    5.7695  -10.4351 H         1 UNK         0.0810 
    120 H120       28.8428    1.9132   -8.7334 H         1 UNK         0.3040 
    121 H121       30.7804    2.0122  -11.0180 H         1 UNK         0.0766 
    122 H122       28.6742    0.7118  -11.5256 H         1 UNK         0.0812 
    123 H123       28.9377   -0.2717  -10.0875 H         1 UNK         0.0812 
    124 H124       30.0692   -0.3504  -11.4310 H         1 UNK         0.0812 
    125 H125       32.3915    0.2153  -10.8309 H         1 UNK         0.3205 
    126 H126       33.6446    0.0722   -8.1991 H         1 UNK         0.0754 
    127 H127       35.3309   -1.3119   -9.4165 H         1 UNK         0.0769 
    128 H128       35.0341    0.1965  -10.2659 H         1 UNK         0.0769 
    129 H129       34.3259   -1.3070  -10.8584 H         1 UNK         0.0769 
    130 H130       33.6102   -1.6638   -6.8109 H         1 UNK         0.2981 
    131 H131       31.5120   -3.6304   -7.0925 H         1 UNK         0.0541 
    132 H132       33.2589   -6.7285   -7.5186 H         1 UNK         0.3459 
    133 H133       31.8687   -6.0239   -6.7384 H         1 UNK         0.3459 
    134 H134       32.1847   -4.3445   -4.8074 H         1 UNK         0.0612 
    135 H135       31.8263   -2.6535   -4.9169 H         1 UNK         0.0612 
    136 H136       34.9411   -0.9679   -3.5463 H         1 UNK         0.0624 
    137 H137       33.8273   -0.6903   -4.8633 H         1 UNK         0.0624 
@<TRIPOS>BOND
     1    1    2 1    
     2    1   72 1    
     3    1   73 1    
     4    1   74 1    
     5    2    3 2    
     6    2    4 am   BACKBONE|DICT|INTERRES
     7    4    5 1    
     8    4   75 1    
     9    5    6 1    
    10    5   35 1    
    11    5   76 1    
    12    6    7 1    
    13    6   77 1    
    14    6   78 1    
    15    7    8 1    
    16    8    9 1    
    17    8   79 1    
    18    8   80 1    
    19    9   10 ar   
    20    9   14 ar   
    21   10   11 ar   
    22   10   81 1    
    23   11   12 ar   
    24   11   71 1    
    25   12   13 ar   
    26   12   82 1    
    27   13   14 ar   
    28   13   15 1    
    29   14   83 1    
    30   15   16 1    
    31   15   84 1    
    32   15   85 1    
    33   16   17 1    
    34   17   18 1    
    35   17   86 1    
    36   17   87 1    
    37   18   19 1    
    38   18   37 1    
    39   18   88 1    
    40   19   20 am   BACKBONE|DICT|INTERRES
    41   19   89 1    
    42   20   21 2    
    43   20   22 1    
    44   22   23 1    
    45   22   24 1    
    46   22   90 1    
    47   23   91 1    
    48   23   92 1    
    49   23   93 1    
    50   24   25 am   BACKBONE|DICT|INTERRES
    51   24   94 1    
    52   25   26 2    
    53   25   27 1    
    54   27   28 1    
    55   27   29 1    
    56   27   95 1    
    57   28   96 1    
    58   28   97 1    
    59   28   98 1    
    60   29   30 am   BACKBONE|DICT|INTERRES
    61   29   99 1    
    62   30   31 2    
    63   30   32 1    
    64   32   33 1    
    65   32   34 1    
    66   32  100 1    
    67   33  101 1    
    68   33  102 1    
    69   33  103 1    
    70   34   35 am   BACKBONE|DICT|INTERRES
    71   34  104 1    
    72   35   36 2    
    73   37   38 2    
    74   37   39 am   BACKBONE|DICT|INTERRES
    75   39   40 1    
    76   39  105 1    
    77   40   41 1    
    78   40   42 1    
    79   40  106 1    
    80   41  107 1    
    81   41  108 1    
    82   41  109 1    
    83   42   43 2    
    84   42   44 am   BACKBONE|DICT|INTERRES
    85   44   45 1    
    86   44  110 1    
    87   45   46 1    
    88   45   47 1    
    89   45  111 1    
    90   46  112 1    
    91   46  113 1    
    92   46  114 1    
    93   47   48 2    
    94   47   49 am   BACKBONE|DICT|INTERRES
    95   49   50 1    
    96   49  115 1    
    97   50   51 1    
    98   50   52 1    
    99   50  116 1    
   100   51  117 1    
   101   51  118 1    
   102   51  119 1    
   103   52   53 2    
   104   52   54 am   BACKBONE|DICT|INTERRES
   105   54   55 1    
   106   54  120 1    
   107   55   56 1    
   108   55   57 1    
   109   55  121 1    
   110   56  122 1    
   111   56  123 1    
   112   56  124 1    
   113   57   58 2    
   114   57   59 am   BACKBONE|DICT|INTERRES
   115   59   60 1    
   116   59  125 1    
   117   60   61 1    
   118   60   62 1    
   119   60  126 1    
   120   61  127 1    
   121   61  128 1    
   122   61  129 1    
   123   62   63 2    
   124   62   64 am   BACKBONE|DICT|INTERRES
   125   64   65 1    
   126   64  130 1    
   127   65   66 1    
   128   65   69 1    
   129   65  131 1    
   130   66   67 am   BACKBONE|DICT|INTERRES
   131   66   68 2    
   132   67  132 1    
   133   67  133 1    
   134   69   70 1    
   135   69  134 1    
   136   69  135 1    
   137   70   71 1    
   138   71  136 1    
   139   71  137 1    
@<TRIPOS>SUBSTRUCTURE
     1 UNK         1 GROUP             0       ****    0 ROOT    
