@<TRIPOS>MOLECULE
3R137
137   139    1
SMALL
USER_CHARGES


@<TRIPOS>ATOM
      1 CA         24.5900   -1.6762   -8.5546 C.3       0 UNK        -0.2020 
      2 C          24.6231   -2.9035   -7.6582 C.2       0 UNK         0.4855 
      3 O          24.0075   -3.9198   -7.9830 O.2       0 UNK        -0.5197 
      4 N          25.3454   -2.8114   -6.5389 N.am      1 UNK        -0.4892 
      5 CA         25.4599   -3.8607   -5.5207 C.3       1 UNK         0.0835 
      6 C6         26.8959   -3.9021   -4.9383 C.3       12 UNK        -0.0855 
      7 S7         28.0739   -4.6195   -6.1299 S.3       12 UNK        -0.2931 
      8 C8         29.3975   -5.1984   -5.0229 C.3       12 UNK         0.0378 
      9 C9         30.1968   -4.0406   -4.4425 C.ar      12 UNK        -0.0802 
     10 C10        31.3154   -3.5499   -5.1217 C.ar      12 UNK        -0.0944 
     11 C11        32.0764   -2.5018   -4.5940 C.ar      12 UNK        -0.0787 
     12 C12        31.6964   -1.9420   -3.3656 C.ar      12 UNK        -0.0862 
     13 C13        30.5760   -2.4206   -2.6774 C.ar      12 UNK        -0.0733 
     14 C14        29.8347   -3.4741   -3.2178 C.ar      12 UNK        -0.0832 
     15 C15        30.1816   -1.8229   -1.3329 C.3       12 UNK         0.0240 
     16 S16        28.6048   -0.9124   -1.4090 S.3       12 UNK        -0.2522 
     17 C17        29.0207    0.4657   -2.5282 C.3       12 UNK        -0.0967 
     18 CA         28.2116    0.4001   -3.8448 C.3       5 UNK         0.0660 
     19 N          26.7684    0.5326   -3.6173 N.am      5 UNK        -0.4015 
     20 C          25.8218    0.3535   -4.5466 C.2       4 UNK         0.4946 
     21 O          26.0529   -0.0382   -5.6934 O.2       4 UNK        -0.5353 
     22 CA         24.3859    0.6908   -4.1130 C.3       4 UNK         0.0277 
     23 CB         23.3732    0.5873   -5.2694 C.3       4 UNK        -0.1981 
     24 N          23.9540   -0.1653   -3.0069 N.am      4 UNK        -0.4209 
     25 C          24.1878    0.0793   -1.7088 C.2       3 UNK         0.4942 
     26 O          24.8530    1.0409   -1.3200 O.2       3 UNK        -0.5208 
     27 CA         23.5859   -0.8817   -0.6650 C.3       3 UNK         0.0250 
     28 CB         22.3295   -0.2604   -0.0327 C.3       3 UNK        -0.1990 
     29 N          23.2408   -2.1925   -1.2193 N.am      3 UNK        -0.4232 
     30 C          24.1189   -3.1857   -1.4062 C.2       2 UNK         0.4993 
     31 O          25.2951   -3.1361   -1.0439 O.2       2 UNK        -0.5286 
     32 CA         23.6332   -4.4355   -2.1686 C.3       2 UNK         0.0209 
     33 CB         22.1034   -4.5047   -2.3898 C.3       2 UNK        -0.1931 
     34 N          24.3587   -4.5604   -3.4404 N.am      2 UNK        -0.4546 
     35 C          24.4118   -3.6353   -4.4121 C.2       1 UNK         0.5154 
     36 O          23.6961   -2.6306   -4.4239 O.2       1 UNK        -0.5181 
     37 C          28.7241    1.4574   -4.8411 C.2       5 UNK         0.5014 
     38 O          29.5650    1.1397   -5.6765 O.2       5 UNK        -0.5248 
     39 N          28.1795    2.6820   -4.7733 N.am      6 UNK        -0.4434 
     40 CA         28.5200    3.7977   -5.6637 C.3       6 UNK         0.0363 
     41 CB         27.8219    5.0724   -5.1631 C.3       6 UNK        -0.1936 
     42 C          28.1823    3.5499   -7.1469 C.2       6 UNK         0.5081 
     43 O          28.8003    4.1683   -8.0142 O.2       6 UNK        -0.5248 
     44 N          27.2178    2.6584   -7.4096 N.am      7 UNK        -0.4718 
     45 CA         26.7909    2.2547   -8.7493 C.3       7 UNK         0.0273 
     46 CB         25.2634    2.0726   -8.7367 C.3       7 UNK        -0.1935 
     47 C          27.4909    0.9731   -9.2403 C.2       7 UNK         0.5018 
     48 O          27.2544    0.5736  -10.3820 O.2       7 UNK        -0.5186 
     49 N          28.3086    0.3328   -8.3921 N.am      8 UNK        -0.4240 
     50 CA         29.0582   -0.8781   -8.7285 C.3       8 UNK         0.0235 
     51 CB         29.4375   -1.6054   -7.4300 C.3       8 UNK        -0.2000 
     52 C          30.3144   -0.5534   -9.5536 C.2       8 UNK         0.4941 
     53 O          30.7465    0.6016   -9.6051 O.2       8 UNK        -0.5273 
     54 N          30.8995   -1.5908  -10.1680 N.am      9 UNK        -0.4262 
     55 CA         32.1505   -1.5104  -10.9276 C.3       9 UNK         0.0264 
     56 CB         32.4673   -2.8845  -11.5397 C.3       9 UNK        -0.1955 
     57 C          33.3140   -1.0281  -10.0448 C.2       9 UNK         0.5031 
     58 O          33.5029   -1.5641   -8.9512 O.2       9 UNK        -0.5390 
     59 N          34.0414   -0.0100  -10.5224 N.am      10 UNK        -0.4204 
     60 CA         35.1377    0.7204   -9.8676 C.3       10 UNK         0.0237 
     61 CB         36.3133   -0.2090   -9.5041 C.3       10 UNK        -0.1985 
     62 C          34.7089    1.5755   -8.6583 C.2       10 UNK         0.4970 
     63 O          35.1587    2.7176   -8.5549 O.2       10 UNK        -0.4914 
     64 N          33.8685    1.0286   -7.7726 N.am      11 UNK        -0.4285 
     65 CA         33.3491    1.7128   -6.5784 C.3       11 UNK         0.1007 
     66 C          32.3314    2.8500   -6.8780 C.2       11 UNK         0.5703 
     67 N          31.5758    2.8026   -7.9679 N.am      11 UNK        -0.7361 
     68 O          32.2424    3.8046   -6.1094 O.2       11 UNK        -0.4986 
     69 C69        32.7723    0.7172   -5.5410 C.3       12 UNK        -0.0947 
     70 S70        34.0254   -0.4360   -4.8927 S.3       12 UNK        -0.2240 
     71 C71        33.3162   -2.0496   -5.3715 C.3       12 UNK         0.0194 
     72 H72        25.4269   -1.0128   -8.3403 H         1 UNK         0.0906 
     73 H73        24.6536   -1.9664   -9.6030 H         1 UNK         0.0906 
     74 H74        23.6632   -1.1231   -8.4047 H         1 UNK         0.0906 
     75 H75        25.7449   -1.9111   -6.2854 H         1 UNK         0.3140 
     76 H76        25.2358   -4.8330   -5.9655 H         1 UNK         0.1085 
     77 H77        27.2323   -2.9021   -4.6561 H         1 UNK         0.0836 
     78 H78        26.9414   -4.5046   -4.0300 H         1 UNK         0.0836 
     79 H79        30.0605   -5.8561   -5.5870 H         1 UNK         0.0731 
     80 H80        28.9746   -5.8115   -4.2256 H         1 UNK         0.0731 
     81 H81        31.6001   -3.9934   -6.0663 H         1 UNK         0.1312 
     82 H82        32.2750   -1.1405   -2.9299 H         1 UNK         0.1406 
     83 H83        28.9741   -3.8494   -2.6810 H         1 UNK         0.1631 
     84 H84        30.9607   -1.1586   -0.9556 H         1 UNK         0.0717 
     85 H85        30.0867   -2.6260   -0.6007 H         1 UNK         0.0717 
     86 H86        28.8321    1.4036   -2.0023 H         1 UNK         0.0934 
     87 H87        30.0927    0.4500   -2.7354 H         1 UNK         0.0934 
     88 H88        28.3847   -0.5768   -4.3029 H         1 UNK         0.0739 
     89 H89        26.4736    0.8001   -2.6845 H         1 UNK         0.3093 
     90 H90        24.3850    1.7309   -3.7794 H         1 UNK         0.0818 
     91 H91        23.6132    1.2998   -6.0584 H         1 UNK         0.0819 
     92 H92        23.3638   -0.4050   -5.7202 H         1 UNK         0.0819 
     93 H93        22.3612    0.8108   -4.9321 H         1 UNK         0.0819 
     94 H94        23.5250   -1.0449   -3.2805 H         1 UNK         0.3041 
     95 H95        24.3305   -1.0140    0.1234 H         1 UNK         0.0784 
     96 H96        22.5572    0.7066    0.4184 H         1 UNK         0.0793 
     97 H97        21.5425   -0.0983   -0.7704 H         1 UNK         0.0793 
     98 H98        21.9262   -0.8962    0.7557 H         1 UNK         0.0793 
     99 H99        22.2986   -2.3118   -1.5631 H         1 UNK         0.3024 
    100 H100       23.9170   -5.2921   -1.5546 H         1 UNK         0.1171 
    101 H101       21.8251   -5.4413   -2.8731 H         1 UNK         0.0786 
    102 H102       21.5667   -4.4674   -1.4408 H         1 UNK         0.0786 
    103 H103       21.7299   -3.6939   -3.0159 H         1 UNK         0.0786 
    104 H104       24.9782   -5.3563   -3.5040 H         1 UNK         0.2977 
    105 H105       27.4898    2.8658   -4.0595 H         1 UNK         0.3127 
    106 H106       29.5984    3.9519   -5.5996 H         1 UNK         0.0770 
    107 H107       26.7359    4.9724   -5.1812 H         1 UNK         0.0814 
    108 H108       28.0801    5.9283   -5.7884 H         1 UNK         0.0814 
    109 H109       28.1225    5.3174   -4.1443 H         1 UNK         0.0814 
    110 H110       26.7928    2.1633   -6.6375 H         1 UNK         0.2983 
    111 H111       27.0312    3.0419   -9.4673 H         1 UNK         0.0947 
    112 H112       24.8923    1.7787   -9.7195 H         1 UNK         0.0806 
    113 H113       24.7566    2.9985   -8.4647 H         1 UNK         0.0806 
    114 H114       24.9574    1.3034   -8.0285 H         1 UNK         0.0806 
    115 H115       28.5210    0.7556   -7.4957 H         1 UNK         0.3000 
    116 H116       28.4125   -1.5337   -9.3169 H         1 UNK         0.0850 
    117 H117       29.8325   -2.5997   -7.6387 H         1 UNK         0.0810 
    118 H118       28.5749   -1.7288   -6.7750 H         1 UNK         0.0810 
    119 H119       30.2035   -1.0695   -6.8715 H         1 UNK         0.0810 
    120 H120       30.5059   -2.5123  -10.0468 H         1 UNK         0.3040 
    121 H121       31.9970   -0.7970  -11.7401 H         1 UNK         0.0766 
    122 H122       32.6064   -3.6457  -10.7706 H         1 UNK         0.0812 
    123 H123       33.3845   -2.8466  -12.1289 H         1 UNK         0.0812 
    124 H124       31.6702   -3.2185  -12.2042 H         1 UNK         0.0812 
    125 H125       33.7668    0.3687  -11.4188 H         1 UNK         0.3205 
    126 H126       35.5044    1.4195  -10.6211 H         1 UNK         0.0754 
    127 H127       37.1625    0.3676   -9.1349 H         1 UNK         0.0769 
    128 H128       36.6566   -0.7725  -10.3717 H         1 UNK         0.0769 
    129 H129       36.0471   -0.9228   -8.7239 H         1 UNK         0.0769 
    130 H130       33.5608    0.0744   -7.9330 H         1 UNK         0.2981 
    131 H131       34.2023    2.2020   -6.1040 H         1 UNK         0.0541 
    132 H132       31.5570    1.9796   -8.5629 H         1 UNK         0.3459 
    133 H133       30.8924    3.5307   -8.1199 H         1 UNK         0.3459 
    134 H134       31.9528    0.1521   -5.9837 H         1 UNK         0.0612 
    135 H135       32.3486    1.2486   -4.6868 H         1 UNK         0.0612 
    136 H136       33.0838   -2.0207   -6.4359 H         1 UNK         0.0624 
    137 H137       34.0903   -2.8075   -5.2468 H         1 UNK         0.0624 
@<TRIPOS>BOND
     1    1    2 1    
     2    1   72 1    
     3    1   73 1    
     4    1   74 1    
     5    2    3 2    
     6    2    4 am   BACKBONE|DICT|INTERRES
     7    4    5 1    
     8    4   75 1    
     9    5    6 1    
    10    5   35 1    
    11    5   76 1    
    12    6    7 1    
    13    6   77 1    
    14    6   78 1    
    15    7    8 1    
    16    8    9 1    
    17    8   79 1    
    18    8   80 1    
    19    9   10 ar   
    20    9   14 ar   
    21   10   11 ar   
    22   10   81 1    
    23   11   12 ar   
    24   11   71 1    
    25   12   13 ar   
    26   12   82 1    
    27   13   14 ar   
    28   13   15 1    
    29   14   83 1    
    30   15   16 1    
    31   15   84 1    
    32   15   85 1    
    33   16   17 1    
    34   17   18 1    
    35   17   86 1    
    36   17   87 1    
    37   18   19 1    
    38   18   37 1    
    39   18   88 1    
    40   19   20 am   BACKBONE|DICT|INTERRES
    41   19   89 1    
    42   20   21 2    
    43   20   22 1    
    44   22   23 1    
    45   22   24 1    
    46   22   90 1    
    47   23   91 1    
    48   23   92 1    
    49   23   93 1    
    50   24   25 am   BACKBONE|DICT|INTERRES
    51   24   94 1    
    52   25   26 2    
    53   25   27 1    
    54   27   28 1    
    55   27   29 1    
    56   27   95 1    
    57   28   96 1    
    58   28   97 1    
    59   28   98 1    
    60   29   30 am   BACKBONE|DICT|INTERRES
    61   29   99 1    
    62   30   31 2    
    63   30   32 1    
    64   32   33 1    
    65   32   34 1    
    66   32  100 1    
    67   33  101 1    
    68   33  102 1    
    69   33  103 1    
    70   34   35 am   BACKBONE|DICT|INTERRES
    71   34  104 1    
    72   35   36 2    
    73   37   38 2    
    74   37   39 am   BACKBONE|DICT|INTERRES
    75   39   40 1    
    76   39  105 1    
    77   40   41 1    
    78   40   42 1    
    79   40  106 1    
    80   41  107 1    
    81   41  108 1    
    82   41  109 1    
    83   42   43 2    
    84   42   44 am   BACKBONE|DICT|INTERRES
    85   44   45 1    
    86   44  110 1    
    87   45   46 1    
    88   45   47 1    
    89   45  111 1    
    90   46  112 1    
    91   46  113 1    
    92   46  114 1    
    93   47   48 2    
    94   47   49 am   BACKBONE|DICT|INTERRES
    95   49   50 1    
    96   49  115 1    
    97   50   51 1    
    98   50   52 1    
    99   50  116 1    
   100   51  117 1    
   101   51  118 1    
   102   51  119 1    
   103   52   53 2    
   104   52   54 am   BACKBONE|DICT|INTERRES
   105   54   55 1    
   106   54  120 1    
   107   55   56 1    
   108   55   57 1    
   109   55  121 1    
   110   56  122 1    
   111   56  123 1    
   112   56  124 1    
   113   57   58 2    
   114   57   59 am   BACKBONE|DICT|INTERRES
   115   59   60 1    
   116   59  125 1    
   117   60   61 1    
   118   60   62 1    
   119   60  126 1    
   120   61  127 1    
   121   61  128 1    
   122   61  129 1    
   123   62   63 2    
   124   62   64 am   BACKBONE|DICT|INTERRES
   125   64   65 1    
   126   64  130 1    
   127   65   66 1    
   128   65   69 1    
   129   65  131 1    
   130   66   67 am   BACKBONE|DICT|INTERRES
   131   66   68 2    
   132   67  132 1    
   133   67  133 1    
   134   69   70 1    
   135   69  134 1    
   136   69  135 1    
   137   70   71 1    
   138   71  136 1    
   139   71  137 1    
@<TRIPOS>SUBSTRUCTURE
     1 UNK         1 GROUP             0       ****    0 ROOT    
