@<TRIPOS>MOLECULE
3R137
137   139    1
SMALL
USER_CHARGES


@<TRIPOS>ATOM
      1 CA         27.1725   -5.6208   -5.1468 C.3       0 UNK        -0.2020 
      2 C          28.6958   -5.5924   -5.0686 C.2       0 UNK         0.4855 
      3 O          29.3582   -5.9138   -6.0530 O.2       0 UNK        -0.5197 
      4 N          29.3143   -5.2340   -3.9365 N.am      1 UNK        -0.4892 
      5 CA         28.7438   -4.6952   -2.6952 C.3       1 UNK         0.0835 
      6 C6         29.8609   -4.6508   -1.6161 C.3       12 UNK        -0.0855 
      7 S7         29.3805   -3.9822    0.0192 S.3       12 UNK        -0.2931 
      8 C8         30.7981   -2.9161    0.4502 C.3       12 UNK         0.0378 
      9 C9         31.0517   -1.8120   -0.5703 C.ar      12 UNK        -0.0802 
     10 C10        32.1244   -1.9196   -1.4612 C.ar      12 UNK        -0.0944 
     11 C11        32.3679   -0.9243   -2.4134 C.ar      12 UNK        -0.0787 
     12 C12        31.5612    0.2166   -2.4230 C.ar      12 UNK        -0.0862 
     13 C13        30.4911    0.3461   -1.5323 C.ar      12 UNK        -0.0733 
     14 C14        30.2339   -0.6783   -0.6140 C.ar      12 UNK        -0.0832 
     15 C15        29.6348    1.6057   -1.5398 C.3       12 UNK         0.0240 
     16 S16        28.2658    1.5047   -2.7347 S.3       12 UNK        -0.2522 
     17 C17        29.0771    2.0244   -4.2818 C.3       12 UNK        -0.0967 
     18 CA         28.2268    1.8362   -5.5594 C.3       5 UNK         0.0660 
     19 N          27.9407    0.4309   -5.8703 N.am      5 UNK        -0.4015 
     20 C          27.5389    0.0176   -7.0824 C.2       4 UNK         0.4946 
     21 O          27.3175    0.7808   -8.0218 O.2       4 UNK        -0.5353 
     22 CA         27.3044   -1.4835   -7.2771 C.3       4 UNK         0.0277 
     23 CB         28.6287   -2.2588   -7.2554 C.3       4 UNK        -0.1981 
     24 N          26.3929   -2.0014   -6.2615 N.am      4 UNK        -0.4209 
     25 C          25.0619   -1.8304   -6.2992 C.2       3 UNK         0.4942 
     26 O          24.4686   -1.2889   -7.2318 O.2       3 UNK        -0.5208 
     27 CA         24.2444   -2.3304   -5.0929 C.3       3 UNK         0.0250 
     28 CB         23.6031   -3.6938   -5.3987 C.3       3 UNK        -0.1990 
     29 N          25.0152   -2.4222   -3.8502 N.am      3 UNK        -0.4232 
     30 C          25.5809   -1.3782   -3.2287 C.2       2 UNK         0.4993 
     31 O          25.4934   -0.2180   -3.6290 O.2       2 UNK        -0.5286 
     32 CA         26.4233   -1.6900   -1.9827 C.3       2 UNK         0.0209 
     33 CB         25.5617   -1.6141   -0.7131 C.3       2 UNK        -0.1931 
     34 N          27.1127   -2.9831   -2.0311 N.am      2 UNK        -0.4546 
     35 C          28.0537   -3.3255   -2.9235 C.2       1 UNK         0.5154 
     36 O          28.3571   -2.6229   -3.8919 O.2       1 UNK        -0.5181 
     37 C          26.9699    2.7301   -5.6016 C.2       5 UNK         0.5014 
     38 O          27.0784    3.8880   -6.0070 O.2       5 UNK        -0.5248 
     39 N          25.7921    2.1701   -5.2818 N.am      6 UNK        -0.4434 
     40 CA         24.4847    2.8074   -5.4803 C.3       6 UNK         0.0363 
     41 CB         23.3884    1.9251   -4.8634 C.3       6 UNK        -0.1936 
     42 C          24.1567    3.1083   -6.9575 C.2       6 UNK         0.5081 
     43 O          23.4059    4.0463   -7.2257 O.2       6 UNK        -0.5248 
     44 N          24.7347    2.3321   -7.8843 N.am      7 UNK        -0.4718 
     45 CA         24.6457    2.5283   -9.3336 C.3       7 UNK         0.0273 
     46 CB         24.4788    1.1513  -10.0013 C.3       7 UNK        -0.1935 
     47 C          25.8745    3.2695   -9.9002 C.2       7 UNK         0.5018 
     48 O          25.9742    3.4077  -11.1201 O.2       7 UNK        -0.5186 
     49 N          26.7864    3.7184   -9.0219 N.am      8 UNK        -0.4240 
     50 CA         28.0701    4.3718   -9.3062 C.3       8 UNK         0.0235 
     51 CB         27.8556    5.7431   -9.9827 C.3       8 UNK        -0.2000 
     52 C          29.0748    3.4767  -10.0631 C.2       8 UNK         0.4941 
     53 O          29.9242    3.9980  -10.7891 O.2       8 UNK        -0.5273 
     54 N          28.9809    2.1549   -9.8723 N.am      9 UNK        -0.4262 
     55 CA         29.9026    1.1572  -10.4131 C.3       9 UNK         0.0264 
     56 CB         29.0818   -0.0445  -10.9136 C.3       9 UNK        -0.1955 
     57 C          30.8975    0.7138   -9.3294 C.2       9 UNK         0.5031 
     58 O          30.6568    0.9254   -8.1378 O.2       9 UNK        -0.5390 
     59 N          31.9925    0.0752   -9.7597 N.am      10 UNK        -0.4204 
     60 CA         32.9554   -0.5801   -8.8729 C.3       10 UNK         0.0237 
     61 CB         34.2598   -0.8484   -9.6411 C.3       10 UNK        -0.1985 
     62 C          32.3677   -1.8910   -8.3261 C.2       10 UNK         0.4970 
     63 O          31.7562   -2.6428   -9.0892 O.2       10 UNK        -0.4914 
     64 N          32.5665   -2.1376   -7.0277 N.am      11 UNK        -0.4285 
     65 CA         32.1115   -3.3473   -6.3312 C.3       11 UNK         0.1007 
     66 C          32.8525   -4.6378   -6.7802 C.2       11 UNK         0.5703 
     67 N          32.1771   -5.7795   -6.7597 N.am      11 UNK        -0.7361 
     68 O          34.0343   -4.6185   -7.1207 O.2       11 UNK        -0.4986 
     69 C69        32.1247   -3.1527   -4.7923 C.3       12 UNK        -0.0947 
     70 S70        33.7570   -2.7396   -4.0777 S.3       12 UNK        -0.2240 
     71 C71        33.5011   -1.0492   -3.4314 C.3       12 UNK         0.0194 
     72 H72        26.8507   -6.3462   -5.8938 H         1 UNK         0.0906 
     73 H73        26.7121   -5.9035   -4.2018 H         1 UNK         0.0906 
     74 H74        26.7959   -4.6460   -5.4477 H         1 UNK         0.0906 
     75 H75        30.3219   -5.2592   -3.9446 H         1 UNK         0.3140 
     76 H76        27.9815   -5.3952   -2.3485 H         1 UNK         0.1085 
     77 H77        30.7112   -4.0929   -2.0034 H         1 UNK         0.0836 
     78 H78        30.2372   -5.6612   -1.4465 H         1 UNK         0.0836 
     79 H79        31.6854   -3.5402    0.5684 H         1 UNK         0.0731 
     80 H80        30.6144   -2.4668    1.4272 H         1 UNK         0.0731 
     81 H81        32.7606   -2.7930   -1.4252 H         1 UNK         0.1312 
     82 H82        31.7717    1.0094   -3.1264 H         1 UNK         0.1406 
     83 H83        29.4055   -0.5899    0.0759 H         1 UNK         0.1631 
     84 H84        30.2488    2.4820   -1.7535 H         1 UNK         0.0717 
     85 H85        29.2138    1.7700   -0.5468 H         1 UNK         0.0717 
     86 H86        30.0018    1.4623   -4.4022 H         1 UNK         0.0934 
     87 H87        29.3759    3.0696   -4.1808 H         1 UNK         0.0934 
     88 H88        28.8551    2.1932   -6.3794 H         1 UNK         0.0739 
     89 H89        28.0715   -0.2392   -5.1247 H         1 UNK         0.3093 
     90 H90        26.8516   -1.6283   -8.2609 H         1 UNK         0.0818 
     91 H91        28.4708   -3.3264   -7.4089 H         1 UNK         0.0819 
     92 H92        29.2886   -1.9114   -8.0507 H         1 UNK         0.0819 
     93 H93        29.1627   -2.1283   -6.3146 H         1 UNK         0.0819 
     94 H94        26.8167   -2.3968   -5.4312 H         1 UNK         0.3041 
     95 H95        23.4425   -1.6076   -4.9279 H         1 UNK         0.0784 
     96 H96        22.9930   -3.6424   -6.3018 H         1 UNK         0.0793 
     97 H97        24.3508   -4.4709   -5.5570 H         1 UNK         0.0793 
     98 H98        22.9490   -4.0159   -4.5883 H         1 UNK         0.0793 
     99 H99        25.1269   -3.3387   -3.4426 H         1 UNK         0.3024 
    100 H100       27.1951   -0.9243   -1.9123 H         1 UNK         0.1171 
    101 H101       24.7889   -2.3836   -0.7007 H         1 UNK         0.0786 
    102 H102       26.1687   -1.7307    0.1851 H         1 UNK         0.0786 
    103 H103       25.0616   -0.6470   -0.6399 H         1 UNK         0.0786 
    104 H104       26.9465   -3.6048   -1.2519 H         1 UNK         0.2977 
    105 H105       25.7865    1.2384   -4.8712 H         1 UNK         0.3127 
    106 H106       24.4980    3.7607   -4.9479 H         1 UNK         0.0770 
    107 H107       23.3500    0.9437   -5.3378 H         1 UNK         0.0814 
    108 H108       22.4052    2.3833   -4.9781 H         1 UNK         0.0814 
    109 H109       23.5532    1.7755   -3.7962 H         1 UNK         0.0814 
    110 H110       25.3637    1.5955   -7.5847 H         1 UNK         0.2983 
    111 H111       23.7679    3.1313   -9.5751 H         1 UNK         0.0947 
    112 H112       25.3525    0.5177   -9.8445 H         1 UNK         0.0806 
    113 H113       24.3367    1.2502  -11.0781 H         1 UNK         0.0806 
    114 H114       23.6105    0.6225   -9.6076 H         1 UNK         0.0806 
    115 H115       26.6029    3.5581   -8.0380 H         1 UNK         0.3000 
    116 H116       28.5253    4.5594   -8.3327 H         1 UNK         0.0850 
    117 H117       28.7921    6.2983  -10.0483 H         1 UNK         0.0810 
    118 H118       27.1557    6.3589   -9.4179 H         1 UNK         0.0810 
    119 H119       27.4696    5.6387  -10.9971 H         1 UNK         0.0810 
    120 H120       28.3013    1.7969   -9.2024 H         1 UNK         0.3040 
    121 H121       30.4632    1.5727  -11.2530 H         1 UNK         0.0766 
    122 H122       28.3621    0.2591  -11.6741 H         1 UNK         0.0812 
    123 H123       28.5279   -0.5216  -10.1048 H         1 UNK         0.0812 
    124 H124       29.7235   -0.8050  -11.3600 H         1 UNK         0.0812 
    125 H125       32.1001   -0.0979  -10.7487 H         1 UNK         0.3205 
    126 H126       33.1763    0.0915   -8.0400 H         1 UNK         0.0754 
    127 H127       35.0021   -1.3197   -8.9953 H         1 UNK         0.0769 
    128 H128       34.6978    0.0772  -10.0156 H         1 UNK         0.0769 
    129 H129       34.0999   -1.5132  -10.4912 H         1 UNK         0.0769 
    130 H130       33.1186   -1.4977   -6.4777 H         1 UNK         0.2981 
    131 H131       31.0683   -3.4903   -6.6152 H         1 UNK         0.0541 
    132 H132       32.6437   -6.6278   -7.0381 H         1 UNK         0.3459 
    133 H133       31.1904   -5.8073   -6.5142 H         1 UNK         0.3459 
    134 H134       31.7760   -4.0581   -4.2974 H         1 UNK         0.0612 
    135 H135       31.4011   -2.3813   -4.5244 H         1 UNK         0.0612 
    136 H136       34.4268   -0.7123   -2.9636 H         1 UNK         0.0624 
    137 H137       33.3227   -0.3863   -4.2794 H         1 UNK         0.0624 
@<TRIPOS>BOND
     1    1    2 1    
     2    1   72 1    
     3    1   73 1    
     4    1   74 1    
     5    2    3 2    
     6    2    4 am   BACKBONE|DICT|INTERRES
     7    4    5 1    
     8    4   75 1    
     9    5    6 1    
    10    5   35 1    
    11    5   76 1    
    12    6    7 1    
    13    6   77 1    
    14    6   78 1    
    15    7    8 1    
    16    8    9 1    
    17    8   79 1    
    18    8   80 1    
    19    9   10 ar   
    20    9   14 ar   
    21   10   11 ar   
    22   10   81 1    
    23   11   12 ar   
    24   11   71 1    
    25   12   13 ar   
    26   12   82 1    
    27   13   14 ar   
    28   13   15 1    
    29   14   83 1    
    30   15   16 1    
    31   15   84 1    
    32   15   85 1    
    33   16   17 1    
    34   17   18 1    
    35   17   86 1    
    36   17   87 1    
    37   18   19 1    
    38   18   37 1    
    39   18   88 1    
    40   19   20 am   BACKBONE|DICT|INTERRES
    41   19   89 1    
    42   20   21 2    
    43   20   22 1    
    44   22   23 1    
    45   22   24 1    
    46   22   90 1    
    47   23   91 1    
    48   23   92 1    
    49   23   93 1    
    50   24   25 am   BACKBONE|DICT|INTERRES
    51   24   94 1    
    52   25   26 2    
    53   25   27 1    
    54   27   28 1    
    55   27   29 1    
    56   27   95 1    
    57   28   96 1    
    58   28   97 1    
    59   28   98 1    
    60   29   30 am   BACKBONE|DICT|INTERRES
    61   29   99 1    
    62   30   31 2    
    63   30   32 1    
    64   32   33 1    
    65   32   34 1    
    66   32  100 1    
    67   33  101 1    
    68   33  102 1    
    69   33  103 1    
    70   34   35 am   BACKBONE|DICT|INTERRES
    71   34  104 1    
    72   35   36 2    
    73   37   38 2    
    74   37   39 am   BACKBONE|DICT|INTERRES
    75   39   40 1    
    76   39  105 1    
    77   40   41 1    
    78   40   42 1    
    79   40  106 1    
    80   41  107 1    
    81   41  108 1    
    82   41  109 1    
    83   42   43 2    
    84   42   44 am   BACKBONE|DICT|INTERRES
    85   44   45 1    
    86   44  110 1    
    87   45   46 1    
    88   45   47 1    
    89   45  111 1    
    90   46  112 1    
    91   46  113 1    
    92   46  114 1    
    93   47   48 2    
    94   47   49 am   BACKBONE|DICT|INTERRES
    95   49   50 1    
    96   49  115 1    
    97   50   51 1    
    98   50   52 1    
    99   50  116 1    
   100   51  117 1    
   101   51  118 1    
   102   51  119 1    
   103   52   53 2    
   104   52   54 am   BACKBONE|DICT|INTERRES
   105   54   55 1    
   106   54  120 1    
   107   55   56 1    
   108   55   57 1    
   109   55  121 1    
   110   56  122 1    
   111   56  123 1    
   112   56  124 1    
   113   57   58 2    
   114   57   59 am   BACKBONE|DICT|INTERRES
   115   59   60 1    
   116   59  125 1    
   117   60   61 1    
   118   60   62 1    
   119   60  126 1    
   120   61  127 1    
   121   61  128 1    
   122   61  129 1    
   123   62   63 2    
   124   62   64 am   BACKBONE|DICT|INTERRES
   125   64   65 1    
   126   64  130 1    
   127   65   66 1    
   128   65   69 1    
   129   65  131 1    
   130   66   67 am   BACKBONE|DICT|INTERRES
   131   66   68 2    
   132   67  132 1    
   133   67  133 1    
   134   69   70 1    
   135   69  134 1    
   136   69  135 1    
   137   70   71 1    
   138   71  136 1    
   139   71  137 1    
@<TRIPOS>SUBSTRUCTURE
     1 UNK         1 GROUP             0       ****    0 ROOT    
