@<TRIPOS>MOLECULE
3R137
137   139    1
SMALL
USER_CHARGES


@<TRIPOS>ATOM
      1 CA         28.3501   -6.7252   -6.1333 C.3       0 UNK        -0.2020 
      2 C          28.3257   -6.3832   -4.6511 C.2       0 UNK         0.4855 
      3 O          28.2489   -7.2845   -3.8160 O.2       0 UNK        -0.5197 
      4 N          28.3832   -5.0899   -4.3210 N.am      1 UNK        -0.4892 
      5 CA         28.3498   -4.5603   -2.9616 C.3       1 UNK         0.0835 
      6 C6         29.7804   -4.3365   -2.4143 C.3       12 UNK        -0.0855 
      7 S7         29.8003   -4.0010   -0.6222 S.3       12 UNK        -0.2931 
      8 C8         31.4452   -3.2417   -0.4186 C.3       12 UNK         0.0378 
      9 C9         31.5647   -1.8853   -1.1051 C.ar      12 UNK        -0.0802 
     10 C10        32.5570   -1.6672   -2.0665 C.ar      12 UNK        -0.0944 
     11 C11        32.6928   -0.4168   -2.6789 C.ar      12 UNK        -0.0787 
     12 C12        31.8315    0.6217   -2.3154 C.ar      12 UNK        -0.0862 
     13 C13        30.8305    0.4171   -1.3596 C.ar      12 UNK        -0.0733 
     14 C14        30.7063   -0.8380   -0.7560 C.ar      12 UNK        -0.0832 
     15 C15        29.8962    1.5515   -0.9529 C.3       12 UNK         0.0240 
     16 S16        29.1380    2.4092   -2.3715 S.3       12 UNK        -0.2522 
     17 C17        28.1436    1.0824   -3.1309 C.3       12 UNK        -0.0967 
     18 CA         28.0086    1.2663   -4.6628 C.3       5 UNK         0.0660 
     19 N          27.7120    0.0030   -5.3432 N.am      5 UNK        -0.4015 
     20 C          27.6744   -0.1695   -6.6725 C.2       4 UNK         0.4946 
     21 O          28.0022    0.6969   -7.4823 O.2       4 UNK        -0.5353 
     22 CA         27.1140   -1.5089   -7.1828 C.3       4 UNK         0.0277 
     23 CB         28.2089   -2.5784   -7.2940 C.3       4 UNK        -0.1981 
     24 N          26.0376   -2.0085   -6.3261 N.am      4 UNK        -0.4209 
     25 C          24.7986   -1.5015   -6.2920 C.2       3 UNK         0.4942 
     26 O          24.4125   -0.5902   -7.0232 O.2       3 UNK        -0.5208 
     27 CA         23.8450   -2.0871   -5.2348 C.3       3 UNK         0.0250 
     28 CB         23.1816   -3.3713   -5.7573 C.3       3 UNK        -0.1990 
     29 N          24.5091   -2.3611   -3.9549 N.am      3 UNK        -0.4232 
     30 C          25.0165   -1.4123   -3.1552 C.2       2 UNK         0.4993 
     31 O          24.9431   -0.2090   -3.3986 O.2       2 UNK        -0.5286 
     32 CA         25.7792   -1.8741   -1.9003 C.3       2 UNK         0.0209 
     33 CB         24.8077   -2.0764   -0.7271 C.3       2 UNK        -0.1931 
     34 N          26.5950   -3.0833   -2.0757 N.am      2 UNK        -0.4546 
     35 C          27.5374   -3.2583   -3.0131 C.2       1 UNK         0.5154 
     36 O          27.7703   -2.4446   -3.9102 O.2       1 UNK        -0.5181 
     37 C          26.9780    2.3604   -5.0190 C.2       5 UNK         0.5014 
     38 O          27.3749    3.4765   -5.3535 O.2       5 UNK        -0.5248 
     39 N          25.6819    2.0125   -4.9885 N.am      6 UNK        -0.4434 
     40 CA         24.5707    2.8788   -5.3953 C.3       6 UNK         0.0363 
     41 CB         23.2343    2.2171   -5.0241 C.3       6 UNK        -0.1936 
     42 C          24.6026    3.2453   -6.8901 C.2       6 UNK         0.5081 
     43 O          24.3007    4.3879   -7.2357 O.2       6 UNK        -0.5248 
     44 N          24.9967    2.2905   -7.7459 N.am      7 UNK        -0.4718 
     45 CA         25.2517    2.5101   -9.1755 C.3       7 UNK         0.0273 
     46 CB         25.3327    1.1518   -9.8903 C.3       7 UNK        -0.1935 
     47 C          26.5256    3.3357   -9.4494 C.2       7 UNK         0.5018 
     48 O          26.6460    3.9083  -10.5331 O.2       7 UNK        -0.5186 
     49 N          27.4359    3.3777   -8.4661 N.am      8 UNK        -0.4240 
     50 CA         28.7294    4.0623   -8.4404 C.3       8 UNK         0.0235 
     51 CB         28.5425    5.5934   -8.5039 C.3       8 UNK        -0.2000 
     52 C          29.7115    3.5211   -9.4942 C.2       8 UNK         0.4941 
     53 O          30.3903    4.3086  -10.1578 O.2       8 UNK        -0.5273 
     54 N          29.7820    2.1904   -9.6307 N.am      9 UNK        -0.4262 
     55 CA         30.6699    1.5115  -10.5726 C.3       9 UNK         0.0264 
     56 CB         30.0205    1.4760  -11.9689 C.3       9 UNK        -0.1955 
     57 C          30.9672    0.0918  -10.0849 C.2       9 UNK         0.5031 
     58 O          30.1107   -0.5240   -9.4505 O.2       9 UNK        -0.5390 
     59 N          32.1594   -0.4129  -10.4297 N.am      10 UNK        -0.4204 
     60 CA         32.6694   -1.7851  -10.2713 C.3       10 UNK         0.0237 
     61 CB         31.8254   -2.7788  -11.0947 C.3       10 UNK        -0.1985 
     62 C          32.8516   -2.3047   -8.8310 C.2       10 UNK         0.4970 
     63 O          33.8194   -3.0275   -8.5920 O.2       10 UNK        -0.4914 
     64 N          31.9280   -1.9725   -7.9204 N.am      11 UNK        -0.4285 
     65 CA         31.8347   -2.4837   -6.5378 C.3       11 UNK         0.1007 
     66 C          31.5066   -4.0077   -6.4378 C.2       11 UNK         0.5703 
     67 N          31.0390   -4.6573   -7.4980 N.am      11 UNK        -0.7361 
     68 O          31.6388   -4.6091   -5.3755 O.2       11 UNK        -0.4986 
     69 C69        33.0432   -2.0760   -5.6466 C.3       12 UNK        -0.0947 
     70 S70        33.1712   -0.2718   -5.4194 S.3       12 UNK        -0.2240 
     71 C71        33.7884   -0.1688   -3.7080 C.3       12 UNK         0.0194 
     72 H72        27.4601   -7.2936   -6.4021 H         1 UNK         0.0906 
     73 H73        28.3830   -5.8337   -6.7587 H         1 UNK         0.0906 
     74 H74        29.2245   -7.3337   -6.3618 H         1 UNK         0.0906 
     75 H75        28.4307   -4.3776   -5.0357 H         1 UNK         0.3140 
     76 H76        27.8268   -5.2684   -2.3145 H         1 UNK         0.1085 
     77 H77        30.2778   -3.5290   -2.9560 H         1 UNK         0.0836 
     78 H78        30.3871   -5.2271   -2.5866 H         1 UNK         0.0836 
     79 H79        32.2018   -3.9356   -0.7886 H         1 UNK         0.0731 
     80 H80        31.6427   -3.1134    0.6465 H         1 UNK         0.0731 
     81 H81        33.2320   -2.4693   -2.3313 H         1 UNK         0.1312 
     82 H82        31.9391    1.5921   -2.7807 H         1 UNK         0.1406 
     83 H83        29.9431   -1.0053   -0.0077 H         1 UNK         0.1631 
     84 H84        30.4631    2.2769   -0.3681 H         1 UNK         0.0717 
     85 H85        29.0993    1.1864   -0.3030 H         1 UNK         0.0717 
     86 H86        28.6243    0.1259   -2.9198 H         1 UNK         0.0934 
     87 H87        27.1707    1.0443   -2.6392 H         1 UNK         0.0934 
     88 H88        28.9760    1.5913   -5.0530 H         1 UNK         0.0739 
     89 H89        27.5112   -0.8000   -4.7530 H         1 UNK         0.3093 
     90 H90        26.7076   -1.3408   -8.1820 H         1 UNK         0.0818 
     91 H91        28.9825   -2.2685   -7.9937 H         1 UNK         0.0819 
     92 H92        28.6906   -2.7672   -6.3366 H         1 UNK         0.0819 
     93 H93        27.8063   -3.5208   -7.6647 H         1 UNK         0.0819 
     94 H94        26.2902   -2.7025   -5.6374 H         1 UNK         0.3041 
     95 H95        23.0614   -1.3479   -5.0545 H         1 UNK         0.0784 
     96 H96        22.6663   -3.1867   -6.7011 H         1 UNK         0.0793 
     97 H97        23.9106   -4.1634   -5.9336 H         1 UNK         0.0793 
     98 H98        22.4389   -3.7483   -5.0539 H         1 UNK         0.0793 
     99 H99        24.6056   -3.3276   -3.6787 H         1 UNK         0.3024 
    100 H100       26.4647   -1.0680   -1.6321 H         1 UNK         0.1171 
    101 H101       25.3424   -2.2771    0.2016 H         1 UNK         0.0786 
    102 H102       24.2027   -1.1834   -0.5621 H         1 UNK         0.0786 
    103 H103       24.1224   -2.9057   -0.9070 H         1 UNK         0.0786 
    104 H104       26.4755   -3.8033   -1.3772 H         1 UNK         0.2977 
    105 H105       25.4307    1.0983   -4.6157 H         1 UNK         0.3127 
    106 H106       24.6569    3.8081   -4.8284 H         1 UNK         0.0770 
    107 H107       23.0936    1.2698   -5.5448 H         1 UNK         0.0814 
    108 H108       22.3941    2.8615   -5.2858 H         1 UNK         0.0814 
    109 H109       23.1726    2.0216   -3.9533 H         1 UNK         0.0814 
    110 H110       25.1435    1.3506   -7.3926 H         1 UNK         0.2983 
    111 H111       24.4070    3.0653   -9.5893 H         1 UNK         0.0947 
    112 H112       25.4374    1.2849  -10.9678 H         1 UNK         0.0806 
    113 H113       24.4346    0.5573   -9.7214 H         1 UNK         0.0806 
    114 H114       26.1900    0.5702   -9.5516 H         1 UNK         0.0806 
    115 H115       27.2447    2.8096   -7.6496 H         1 UNK         0.3000 
    116 H116       29.1724    3.8272   -7.4716 H         1 UNK         0.0850 
    117 H117       29.4917    6.1095   -8.3552 H         1 UNK         0.0810 
    118 H118       27.8611    5.9394   -7.7264 H         1 UNK         0.0810 
    119 H119       28.1450    5.9144   -9.4671 H         1 UNK         0.0810 
    120 H120       29.2274    1.5813   -9.0319 H         1 UNK         0.3040 
    121 H121       31.6150    2.0564  -10.6276 H         1 UNK         0.0766 
    122 H122       29.8499    2.4810  -12.3551 H         1 UNK         0.0812 
    123 H123       29.0601    0.9590  -11.9491 H         1 UNK         0.0812 
    124 H124       30.6570    0.9577  -12.6873 H         1 UNK         0.0812 
    125 H125       32.7924    0.2074  -10.9166 H         1 UNK         0.3205 
    126 H126       33.6678   -1.7699  -10.7120 H         1 UNK         0.0754 
    127 H127       32.2484   -3.7834  -11.0497 H         1 UNK         0.0769 
    128 H128       31.7896   -2.4912  -12.1455 H         1 UNK         0.0769 
    129 H129       30.7991   -2.8418  -10.7312 H         1 UNK         0.0769 
    130 H130       31.1526   -1.3980   -8.2449 H         1 UNK         0.2981 
    131 H131       30.9566   -1.9964   -6.1137 H         1 UNK         0.0541 
    132 H132       30.9207   -4.1847   -8.3784 H         1 UNK         0.3459 
    133 H133       30.8482   -5.6426   -7.4231 H         1 UNK         0.3459 
    134 H134       33.9832   -2.4466   -6.0561 H         1 UNK         0.0612 
    135 H135       32.9518   -2.5328   -4.6624 H         1 UNK         0.0612 
    136 H136       34.6114   -0.8728   -3.5745 H         1 UNK         0.0624 
    137 H137       34.2124    0.8241   -3.5515 H         1 UNK         0.0624 
@<TRIPOS>BOND
     1    1    2 1    
     2    1   72 1    
     3    1   73 1    
     4    1   74 1    
     5    2    3 2    
     6    2    4 am   BACKBONE|DICT|INTERRES
     7    4    5 1    
     8    4   75 1    
     9    5    6 1    
    10    5   35 1    
    11    5   76 1    
    12    6    7 1    
    13    6   77 1    
    14    6   78 1    
    15    7    8 1    
    16    8    9 1    
    17    8   79 1    
    18    8   80 1    
    19    9   10 ar   
    20    9   14 ar   
    21   10   11 ar   
    22   10   81 1    
    23   11   12 ar   
    24   11   71 1    
    25   12   13 ar   
    26   12   82 1    
    27   13   14 ar   
    28   13   15 1    
    29   14   83 1    
    30   15   16 1    
    31   15   84 1    
    32   15   85 1    
    33   16   17 1    
    34   17   18 1    
    35   17   86 1    
    36   17   87 1    
    37   18   19 1    
    38   18   37 1    
    39   18   88 1    
    40   19   20 am   BACKBONE|DICT|INTERRES
    41   19   89 1    
    42   20   21 2    
    43   20   22 1    
    44   22   23 1    
    45   22   24 1    
    46   22   90 1    
    47   23   91 1    
    48   23   92 1    
    49   23   93 1    
    50   24   25 am   BACKBONE|DICT|INTERRES
    51   24   94 1    
    52   25   26 2    
    53   25   27 1    
    54   27   28 1    
    55   27   29 1    
    56   27   95 1    
    57   28   96 1    
    58   28   97 1    
    59   28   98 1    
    60   29   30 am   BACKBONE|DICT|INTERRES
    61   29   99 1    
    62   30   31 2    
    63   30   32 1    
    64   32   33 1    
    65   32   34 1    
    66   32  100 1    
    67   33  101 1    
    68   33  102 1    
    69   33  103 1    
    70   34   35 am   BACKBONE|DICT|INTERRES
    71   34  104 1    
    72   35   36 2    
    73   37   38 2    
    74   37   39 am   BACKBONE|DICT|INTERRES
    75   39   40 1    
    76   39  105 1    
    77   40   41 1    
    78   40   42 1    
    79   40  106 1    
    80   41  107 1    
    81   41  108 1    
    82   41  109 1    
    83   42   43 2    
    84   42   44 am   BACKBONE|DICT|INTERRES
    85   44   45 1    
    86   44  110 1    
    87   45   46 1    
    88   45   47 1    
    89   45  111 1    
    90   46  112 1    
    91   46  113 1    
    92   46  114 1    
    93   47   48 2    
    94   47   49 am   BACKBONE|DICT|INTERRES
    95   49   50 1    
    96   49  115 1    
    97   50   51 1    
    98   50   52 1    
    99   50  116 1    
   100   51  117 1    
   101   51  118 1    
   102   51  119 1    
   103   52   53 2    
   104   52   54 am   BACKBONE|DICT|INTERRES
   105   54   55 1    
   106   54  120 1    
   107   55   56 1    
   108   55   57 1    
   109   55  121 1    
   110   56  122 1    
   111   56  123 1    
   112   56  124 1    
   113   57   58 2    
   114   57   59 am   BACKBONE|DICT|INTERRES
   115   59   60 1    
   116   59  125 1    
   117   60   61 1    
   118   60   62 1    
   119   60  126 1    
   120   61  127 1    
   121   61  128 1    
   122   61  129 1    
   123   62   63 2    
   124   62   64 am   BACKBONE|DICT|INTERRES
   125   64   65 1    
   126   64  130 1    
   127   65   66 1    
   128   65   69 1    
   129   65  131 1    
   130   66   67 am   BACKBONE|DICT|INTERRES
   131   66   68 2    
   132   67  132 1    
   133   67  133 1    
   134   69   70 1    
   135   69  134 1    
   136   69  135 1    
   137   70   71 1    
   138   71  136 1    
   139   71  137 1    
@<TRIPOS>SUBSTRUCTURE
     1 UNK         1 GROUP             0       ****    0 ROOT    
