@<TRIPOS>MOLECULE
3R137
137   139    1
SMALL
USER_CHARGES


@<TRIPOS>ATOM
      1 CA         23.6122   -5.6990   -3.1272 C.3       0 UNK        -0.2020 
      2 C          24.2625   -4.7109   -2.1714 C.2       0 UNK         0.4855 
      3 O          23.5889   -3.8144   -1.6623 O.2       0 UNK        -0.5197 
      4 N          25.5697   -4.8741   -1.9324 N.am      1 UNK        -0.4892 
      5 CA         26.4320   -4.0528   -1.0735 C.3       1 UNK         0.0835 
      6 C6         27.8858   -4.6089   -1.0013 C.3       12 UNK        -0.0855 
      7 S7         28.5184   -5.3612   -2.5502 S.3       12 UNK        -0.2931 
      8 C8         30.2834   -4.9169   -2.5218 C.3       12 UNK         0.0378 
      9 C9         30.5431   -3.5999   -3.2363 C.ar      12 UNK        -0.0802 
     10 C10        30.8018   -3.5841   -4.6103 C.ar      12 UNK        -0.0944 
     11 C11        31.0471   -2.3775   -5.2729 C.ar      12 UNK        -0.0787 
     12 C12        31.0323   -1.1801   -4.5523 C.ar      12 UNK        -0.0862 
     13 C13        30.7671   -1.1828   -3.1801 C.ar      12 UNK        -0.0733 
     14 C14        30.5334   -2.3971   -2.5269 C.ar      12 UNK        -0.0832 
     15 C15        30.7370    0.1166   -2.3901 C.3       12 UNK         0.0240 
     16 S16        29.0822    0.4261   -1.6985 S.3       12 UNK        -0.2522 
     17 C17        28.3584    1.6386   -2.8499 C.3       12 UNK        -0.0967 
     18 CA         28.2658    1.2126   -4.3383 C.3       5 UNK         0.0660 
     19 N          27.6321   -0.0961   -4.5590 N.am      5 UNK        -0.4015 
     20 C          27.5267   -0.6836   -5.7633 C.2       4 UNK         0.4946 
     21 O          28.0396   -0.2326   -6.7881 O.2       4 UNK        -0.5353 
     22 CA         26.6414   -1.9338   -5.8777 C.3       4 UNK         0.0277 
     23 CB         27.4400   -3.2135   -5.5957 C.3       4 UNK        -0.1981 
     24 N          25.4766   -1.8526   -4.9952 N.am      4 UNK        -0.4209 
     25 C          24.4054   -1.0842   -5.2454 C.2       3 UNK         0.4942 
     26 O          24.2689   -0.4268   -6.2750 O.2       3 UNK        -0.5208 
     27 CA         23.3272   -0.9813   -4.1532 C.3       3 UNK         0.0250 
     28 CB         22.2632   -2.0743   -4.3298 C.3       3 UNK        -0.1990 
     29 N          23.8892   -1.0365   -2.8023 N.am      3 UNK        -0.4232 
     30 C          24.6736   -0.0759   -2.2894 C.2       2 UNK         0.4993 
     31 O          24.9252    0.9778   -2.8749 O.2       2 UNK        -0.5286 
     32 CA         25.3349   -0.3524   -0.9269 C.3       2 UNK         0.0209 
     33 CB         24.4673    0.2036    0.2128 C.3       2 UNK        -0.1931 
     34 N          25.6191   -1.7704   -0.6771 N.am      2 UNK        -0.4546 
     35 C          26.3741   -2.5590   -1.4572 C.2       1 UNK         0.5154 
     36 O          26.9413   -2.1600   -2.4738 O.2       1 UNK        -0.5181 
     37 C          27.5745    2.3341   -5.1435 C.2       5 UNK         0.5014 
     38 O          28.2592    3.2242   -5.6459 O.2       5 UNK        -0.5248 
     39 N          26.2401    2.2733   -5.2508 N.am      6 UNK        -0.4434 
     40 CA         25.4400    3.1859   -6.0633 C.3       6 UNK         0.0363 
     41 CB         23.9741    3.1376   -5.6004 C.3       6 UNK        -0.1936 
     42 C          25.5555    2.8898   -7.5691 C.2       6 UNK         0.5081 
     43 O          25.8338    3.8068   -8.3422 O.2       6 UNK        -0.5248 
     44 N          25.2980    1.6352   -7.9657 N.am      7 UNK        -0.4718 
     45 CA         25.1618    1.2353   -9.3686 C.3       7 UNK         0.0273 
     46 CB         24.3541   -0.0701   -9.4577 C.3       7 UNK        -0.1935 
     47 C          26.4949    1.0871  -10.1160 C.2       7 UNK         0.5018 
     48 O          26.5984    1.5638  -11.2474 O.2       7 UNK        -0.5186 
     49 N          27.4675    0.4007   -9.5032 N.am      8 UNK        -0.4240 
     50 CA         28.7546    0.0716  -10.1209 C.3       8 UNK         0.0235 
     51 CB         29.1069   -1.3956   -9.8267 C.3       8 UNK        -0.2000 
     52 C          29.8668    1.0118   -9.6410 C.2       8 UNK         0.4941 
     53 O          30.6886    1.4263  -10.4591 O.2       8 UNK        -0.5273 
     54 N          29.8563    1.3489   -8.3423 N.am      9 UNK        -0.4262 
     55 CA         30.7776    2.2586   -7.6540 C.3       9 UNK         0.0264 
     56 CB         30.5885    3.7128   -8.1429 C.3       9 UNK        -0.1955 
     57 C          32.2341    1.7690   -7.7163 C.2       9 UNK         0.5031 
     58 O          32.6148    0.9143   -6.9160 O.2       9 UNK        -0.5390 
     59 N          33.0257    2.3023   -8.6548 N.am      10 UNK        -0.4204 
     60 CA         34.4312    1.9594   -8.8805 C.3       10 UNK         0.0237 
     61 CB         35.1169    3.1317   -9.6079 C.3       10 UNK        -0.1985 
     62 C          34.5852    0.6202   -9.6300 C.2       10 UNK         0.4970 
     63 O          35.1505    0.5863  -10.7248 O.2       10 UNK        -0.4914 
     64 N          34.0727   -0.4589   -9.0284 N.am      11 UNK        -0.4285 
     65 CA         34.1615   -1.8361   -9.5376 C.3       11 UNK         0.1007 
     66 C          35.5680   -2.4963   -9.4210 C.2       11 UNK         0.5703 
     67 N          36.5211   -1.9164   -8.7003 N.am      11 UNK        -0.7361 
     68 O          35.8024   -3.5484  -10.0113 O.2       11 UNK        -0.4986 
     69 C69        33.0394   -2.7365   -8.9564 C.3       12 UNK        -0.0947 
     70 S70        33.0335   -2.8312   -7.1324 S.3       12 UNK        -0.2240 
     71 C71        31.3142   -2.3681   -6.7687 C.3       12 UNK         0.0194 
     72 H72        22.5830   -5.8956   -2.8272 H         1 UNK         0.0906 
     73 H73        23.6032   -5.2978   -4.1399 H         1 UNK         0.0906 
     74 H74        24.1443   -6.6501   -3.1414 H         1 UNK         0.0906 
     75 H75        26.0705   -5.6031   -2.4230 H         1 UNK         0.3140 
     76 H76        26.0193   -4.1332   -0.0655 H         1 UNK         0.1085 
     77 H77        27.9225   -5.3927   -0.2431 H         1 UNK         0.0836 
     78 H78        28.5781   -3.8429   -0.6479 H         1 UNK         0.0836 
     79 H79        30.8490   -5.7126   -3.0091 H         1 UNK         0.0731 
     80 H80        30.6463   -4.8784   -1.4935 H         1 UNK         0.0731 
     81 H81        30.8091   -4.5114   -5.1667 H         1 UNK         0.1312 
     82 H82        31.2225   -0.2473   -5.0639 H         1 UNK         0.1406 
     83 H83        30.3286   -2.3989   -1.4655 H         1 UNK         0.1631 
     84 H84        31.0573    0.9635   -2.9985 H         1 UNK         0.0717 
     85 H85        31.4507    0.0438   -1.5683 H         1 UNK         0.0717 
     86 H86        27.3690    1.8894   -2.4643 H         1 UNK         0.0934 
     87 H87        28.9438    2.5565   -2.7641 H         1 UNK         0.0934 
     88 H88        29.2812    1.1340   -4.7273 H         1 UNK         0.0739 
     89 H89        27.2702   -0.5805   -3.7437 H         1 UNK         0.3093 
     90 H90        26.2837   -1.9908   -6.9082 H         1 UNK         0.0818 
     91 H91        27.9005   -3.1956   -4.6086 H         1 UNK         0.0819 
     92 H92        26.8108   -4.1012   -5.6563 H         1 UNK         0.0819 
     93 H93        28.2436   -3.3336   -6.3226 H         1 UNK         0.0819 
     94 H94        25.5767   -2.2828   -4.0838 H         1 UNK         0.3041 
     95 H95        22.8347   -0.0132   -4.2690 H         1 UNK         0.0784 
     96 H96        21.7840   -1.9945   -5.3066 H         1 UNK         0.0793 
     97 H97        22.6927   -3.0725   -4.2605 H         1 UNK         0.0793 
     98 H98        21.4798   -1.9927   -3.5762 H         1 UNK         0.0793 
     99 H99        23.7413   -1.8903   -2.2710 H         1 UNK         0.3024 
    100 H100       26.2875    0.1784   -0.9190 H         1 UNK         0.1171 
    101 H101       24.9683    0.1084    1.1763 H         1 UNK         0.0786 
    102 H102       24.2587    1.2639    0.0621 H         1 UNK         0.0786 
    103 H103       23.5080   -0.3115    0.2785 H         1 UNK         0.0786 
    104 H104       25.1394   -2.1890    0.1071 H         1 UNK         0.2977 
    105 H105       25.7421    1.5606   -4.7282 H         1 UNK         0.3127 
    106 H106       25.8058    4.2016   -5.8962 H         1 UNK         0.0770 
    107 H107       23.5409    2.1440   -5.7170 H         1 UNK         0.0814 
    108 H108       23.3606    3.8306   -6.1774 H         1 UNK         0.0814 
    109 H109       23.8820    3.4183   -4.5509 H         1 UNK         0.0814 
    110 H110       25.0428    0.9367   -7.2698 H         1 UNK         0.2983 
    111 H111       24.5878    2.0096   -9.8832 H         1 UNK         0.0947 
    112 H112       24.2057   -0.3690  -10.4963 H         1 UNK         0.0806 
    113 H113       23.3670    0.0436   -9.0091 H         1 UNK         0.0806 
    114 H114       24.8577   -0.8934   -8.9496 H         1 UNK         0.0806 
    115 H115       27.3417    0.1077   -8.5383 H         1 UNK         0.3000 
    116 H116       28.6854    0.1767  -11.2060 H         1 UNK         0.0850 
    117 H117       30.0480   -1.6701  -10.3034 H         1 UNK         0.0810 
    118 H118       28.3418   -2.0691  -10.2128 H         1 UNK         0.0810 
    119 H119       29.2081   -1.5860   -8.7588 H         1 UNK         0.0810 
    120 H120       29.1684    0.8906   -7.7472 H         1 UNK         0.3040 
    121 H121       30.5031    2.2317   -6.5997 H         1 UNK         0.0766 
    122 H122       29.5729    4.0566   -7.9453 H         1 UNK         0.0812 
    123 H123       30.7664    3.8264   -9.2123 H         1 UNK         0.0812 
    124 H124       31.2624    4.3927   -7.6201 H         1 UNK         0.0812 
    125 H125       32.5994    2.9258   -9.3256 H         1 UNK         0.3205 
    126 H126       34.9208    1.8419   -7.9113 H         1 UNK         0.0754 
    127 H127       34.6737    3.3150  -10.5877 H         1 UNK         0.0769 
    128 H128       36.1780    2.9302   -9.7614 H         1 UNK         0.0769 
    129 H129       35.0454    4.0532   -9.0298 H         1 UNK         0.0769 
    130 H130       33.6088   -0.3351   -8.1335 H         1 UNK         0.2981 
    131 H131       33.9741   -1.7786  -10.6116 H         1 UNK         0.0541 
    132 H132       37.4279   -2.3516   -8.6393 H         1 UNK         0.3459 
    133 H133       36.3366   -1.0594   -8.2051 H         1 UNK         0.3459 
    134 H134       32.0748   -2.3595   -9.2955 H         1 UNK         0.0612 
    135 H135       33.1092   -3.7504   -9.3543 H         1 UNK         0.0612 
    136 H136       30.6393   -3.0654   -7.2669 H         1 UNK         0.0624 
    137 H137       31.1075   -1.3811   -7.1855 H         1 UNK         0.0624 
@<TRIPOS>BOND
     1    1    2 1    
     2    1   72 1    
     3    1   73 1    
     4    1   74 1    
     5    2    3 2    
     6    2    4 am   BACKBONE|DICT|INTERRES
     7    4    5 1    
     8    4   75 1    
     9    5    6 1    
    10    5   35 1    
    11    5   76 1    
    12    6    7 1    
    13    6   77 1    
    14    6   78 1    
    15    7    8 1    
    16    8    9 1    
    17    8   79 1    
    18    8   80 1    
    19    9   10 ar   
    20    9   14 ar   
    21   10   11 ar   
    22   10   81 1    
    23   11   12 ar   
    24   11   71 1    
    25   12   13 ar   
    26   12   82 1    
    27   13   14 ar   
    28   13   15 1    
    29   14   83 1    
    30   15   16 1    
    31   15   84 1    
    32   15   85 1    
    33   16   17 1    
    34   17   18 1    
    35   17   86 1    
    36   17   87 1    
    37   18   19 1    
    38   18   37 1    
    39   18   88 1    
    40   19   20 am   BACKBONE|DICT|INTERRES
    41   19   89 1    
    42   20   21 2    
    43   20   22 1    
    44   22   23 1    
    45   22   24 1    
    46   22   90 1    
    47   23   91 1    
    48   23   92 1    
    49   23   93 1    
    50   24   25 am   BACKBONE|DICT|INTERRES
    51   24   94 1    
    52   25   26 2    
    53   25   27 1    
    54   27   28 1    
    55   27   29 1    
    56   27   95 1    
    57   28   96 1    
    58   28   97 1    
    59   28   98 1    
    60   29   30 am   BACKBONE|DICT|INTERRES
    61   29   99 1    
    62   30   31 2    
    63   30   32 1    
    64   32   33 1    
    65   32   34 1    
    66   32  100 1    
    67   33  101 1    
    68   33  102 1    
    69   33  103 1    
    70   34   35 am   BACKBONE|DICT|INTERRES
    71   34  104 1    
    72   35   36 2    
    73   37   38 2    
    74   37   39 am   BACKBONE|DICT|INTERRES
    75   39   40 1    
    76   39  105 1    
    77   40   41 1    
    78   40   42 1    
    79   40  106 1    
    80   41  107 1    
    81   41  108 1    
    82   41  109 1    
    83   42   43 2    
    84   42   44 am   BACKBONE|DICT|INTERRES
    85   44   45 1    
    86   44  110 1    
    87   45   46 1    
    88   45   47 1    
    89   45  111 1    
    90   46  112 1    
    91   46  113 1    
    92   46  114 1    
    93   47   48 2    
    94   47   49 am   BACKBONE|DICT|INTERRES
    95   49   50 1    
    96   49  115 1    
    97   50   51 1    
    98   50   52 1    
    99   50  116 1    
   100   51  117 1    
   101   51  118 1    
   102   51  119 1    
   103   52   53 2    
   104   52   54 am   BACKBONE|DICT|INTERRES
   105   54   55 1    
   106   54  120 1    
   107   55   56 1    
   108   55   57 1    
   109   55  121 1    
   110   56  122 1    
   111   56  123 1    
   112   56  124 1    
   113   57   58 2    
   114   57   59 am   BACKBONE|DICT|INTERRES
   115   59   60 1    
   116   59  125 1    
   117   60   61 1    
   118   60   62 1    
   119   60  126 1    
   120   61  127 1    
   121   61  128 1    
   122   61  129 1    
   123   62   63 2    
   124   62   64 am   BACKBONE|DICT|INTERRES
   125   64   65 1    
   126   64  130 1    
   127   65   66 1    
   128   65   69 1    
   129   65  131 1    
   130   66   67 am   BACKBONE|DICT|INTERRES
   131   66   68 2    
   132   67  132 1    
   133   67  133 1    
   134   69   70 1    
   135   69  134 1    
   136   69  135 1    
   137   70   71 1    
   138   71  136 1    
   139   71  137 1    
@<TRIPOS>SUBSTRUCTURE
     1 UNK         1 GROUP             0       ****    0 ROOT    
