@<TRIPOS>MOLECULE
3R137
137   139    1
SMALL
USER_CHARGES


@<TRIPOS>ATOM
      1 CA         30.4485   -4.6608   -1.7910 C.3       0 UNK        -0.2020 
      2 C          29.5114   -3.8775   -0.8861 C.2       0 UNK         0.4855 
      3 O          29.0303   -4.4093    0.1146 O.2       0 UNK        -0.5197 
      4 N          29.2540   -2.6104   -1.2332 N.am      1 UNK        -0.4892 
      5 CA         28.4104   -1.6782   -0.4704 C.3       1 UNK         0.0835 
      6 C6         28.5741   -0.2136   -0.9489 C.3       12 UNK        -0.0855 
      7 S7         30.3049    0.3653   -0.9352 S.3       12 UNK        -0.2931 
      8 C8         30.6077    0.6526   -2.7075 C.3       12 UNK         0.0378 
      9 C9         30.8423   -0.6461   -3.4640 C.ar      12 UNK        -0.0802 
     10 C10        32.1203   -1.2095   -3.4832 C.ar      12 UNK        -0.0944 
     11 C11        32.3660   -2.3937   -4.1809 C.ar      12 UNK        -0.0787 
     12 C12        31.3127   -3.0186   -4.8581 C.ar      12 UNK        -0.0862 
     13 C13        30.0329   -2.4560   -4.8683 C.ar      12 UNK        -0.0733 
     14 C14        29.8017   -1.2718   -4.1592 C.ar      12 UNK        -0.0832 
     15 C15        28.9143   -3.1474   -5.6402 C.3       12 UNK         0.0240 
     16 S16        28.1037   -2.0425   -6.8464 S.3       12 UNK        -0.2522 
     17 C17        26.5827   -1.5646   -5.9566 C.3       12 UNK        -0.0967 
     18 CA         25.3584   -1.4802   -6.9034 C.3       5 UNK         0.0660 
     19 N          24.1002   -1.6767   -6.1806 N.am      5 UNK        -0.4015 
     20 C          22.9328   -1.9978   -6.7616 C.2       4 UNK         0.4946 
     21 O          22.8115   -2.1709   -7.9757 O.2       4 UNK        -0.5353 
     22 CA         21.6920   -2.2014   -5.8684 C.3       4 UNK         0.0277 
     23 CB         21.1852   -3.6508   -5.9717 C.3       4 UNK        -0.1981 
     24 N          21.9200   -1.8886   -4.4576 N.am      4 UNK        -0.4209 
     25 C          21.9137   -0.6593   -3.9255 C.2       3 UNK         0.4942 
     26 O          21.6578    0.3623   -4.5630 O.2       3 UNK        -0.5208 
     27 CA         22.2747   -0.5508   -2.4310 C.3       3 UNK         0.0250 
     28 CB         21.0001   -0.4588   -1.5761 C.3       3 UNK        -0.1990 
     29 N          23.1126   -1.6527   -1.9361 N.am      3 UNK        -0.4232 
     30 C          24.3576   -1.9070   -2.3611 C.2       2 UNK         0.4993 
     31 O          24.9215   -1.2597   -3.2462 O.2       2 UNK        -0.5286 
     32 CA         25.0702   -3.1229   -1.7507 C.3       2 UNK         0.0209 
     33 CB         24.9821   -4.3276   -2.7027 C.3       2 UNK        -0.1931 
     34 N          26.4770   -2.8133   -1.4988 N.am      2 UNK        -0.4546 
     35 C          26.9126   -2.0533   -0.4845 C.2       1 UNK         0.5154 
     36 O          26.1776   -1.6315    0.4105 O.2       1 UNK        -0.5181 
     37 C          25.3199   -0.1593   -7.6991 C.2       5 UNK         0.5014 
     38 O          25.5385    0.9098   -7.1271 O.2       5 UNK        -0.5248 
     39 N          25.0332   -0.2518   -9.0043 N.am      6 UNK        -0.4434 
     40 CA         24.9884    0.8887   -9.9257 C.3       6 UNK         0.0363 
     41 CB         24.2876    0.4616  -11.2254 C.3       6 UNK        -0.1936 
     42 C          26.3777    1.4767  -10.2339 C.2       6 UNK         0.5081 
     43 O          26.4736    2.6585  -10.5640 O.2       6 UNK        -0.5248 
     44 N          27.4234    0.6490  -10.1136 N.am      7 UNK        -0.4718 
     45 CA         28.8238    1.0017  -10.3554 C.3       7 UNK         0.0273 
     46 CB         29.4361   -0.0376  -11.3126 C.3       7 UNK        -0.1935 
     47 C          29.6124    1.1123   -9.0382 C.2       7 UNK         0.5018 
     48 O          30.8122    0.8294   -9.0266 O.2       7 UNK        -0.5186 
     49 N          28.9372    1.5228   -7.9534 N.am      8 UNK        -0.4240 
     50 CA         29.4625    1.6344   -6.5856 C.3       8 UNK         0.0235 
     51 CB         28.3866    2.2624   -5.6836 C.3       8 UNK        -0.2000 
     52 C          30.7801    2.4158   -6.4501 C.2       8 UNK         0.4941 
     53 O          31.6451    2.0138   -5.6735 O.2       8 UNK        -0.5273 
     54 N          30.9244    3.4944   -7.2313 N.am      9 UNK        -0.4262 
     55 CA         32.1249    4.3335   -7.2778 C.3       9 UNK         0.0264 
     56 CB         31.8025    5.6237   -8.0498 C.3       9 UNK        -0.1955 
     57 C          33.3584    3.6387   -7.8880 C.2       9 UNK         0.5031 
     58 O          34.4767    4.0902   -7.6358 O.2       9 UNK        -0.5390 
     59 N          33.1442    2.5806   -8.6816 N.am      10 UNK        -0.4204 
     60 CA         34.1865    1.8293   -9.3835 C.3       10 UNK         0.0237 
     61 CB         33.8390    1.8175  -10.8833 C.3       10 UNK        -0.1985 
     62 C          34.3393    0.3897   -8.8610 C.2       10 UNK         0.4970 
     63 O          35.2126   -0.3214   -9.3601 O.2       10 UNK        -0.4914 
     64 N          33.4927   -0.0308   -7.9081 N.am      11 UNK        -0.4285 
     65 CA         33.3224   -1.4297   -7.4800 C.3       11 UNK         0.1007 
     66 C          32.7806   -2.3382   -8.6307 C.2       11 UNK         0.5703 
     67 N          31.8658   -1.8368   -9.4520 N.am      11 UNK        -0.7361 
     68 O          33.1818   -3.4866   -8.8021 O.2       11 UNK        -0.4986 
     69 C69        34.5731   -1.9681   -6.7177 C.3       12 UNK        -0.0947 
     70 S70        34.3234   -3.5429   -5.8236 S.3       12 UNK        -0.2240 
     71 C71        33.7667   -2.9963   -4.1767 C.3       12 UNK         0.0194 
     72 H72        29.9559   -4.9033   -2.7322 H         1 UNK         0.0906 
     73 H73        31.3474   -4.0843   -2.0067 H         1 UNK         0.0906 
     74 H74        30.7546   -5.5931   -1.3168 H         1 UNK         0.0906 
     75 H75        29.7193   -2.2131   -2.0396 H         1 UNK         0.3140 
     76 H76        28.7337   -1.7288    0.5719 H         1 UNK         0.1085 
     77 H77        28.0075    0.4571   -0.2994 H         1 UNK         0.0836 
     78 H78        28.1475   -0.0846   -1.9452 H         1 UNK         0.0836 
     79 H79        31.4803    1.2987   -2.8164 H         1 UNK         0.0731 
     80 H80        29.7730    1.2048   -3.1364 H         1 UNK         0.0731 
     81 H81        32.9248   -0.7212   -2.9503 H         1 UNK         0.1312 
     82 H82        31.4973   -3.9405   -5.3927 H         1 UNK         0.1406 
     83 H83        28.8148   -0.8311   -4.1614 H         1 UNK         0.1631 
     84 H84        28.1952   -3.5672   -4.9368 H         1 UNK         0.0717 
     85 H85        29.3124   -3.9971   -6.1969 H         1 UNK         0.0717 
     86 H86        26.3873   -2.3176   -5.1936 H         1 UNK         0.0934 
     87 H87        26.7435   -0.6353   -5.4086 H         1 UNK         0.0934 
     88 H88        25.4399   -2.3055   -7.6149 H         1 UNK         0.0739 
     89 H89        24.1326   -1.5064   -5.1816 H         1 UNK         0.3093 
     90 H90        20.9109   -1.5408   -6.2511 H         1 UNK         0.0818 
     91 H91        21.9289   -4.3657   -5.6173 H         1 UNK         0.0819 
     92 H92        20.2744   -3.7958   -5.3904 H         1 UNK         0.0819 
     93 H93        20.9499   -3.9118   -7.0046 H         1 UNK         0.0819 
     94 H94        22.1302   -2.6666   -3.8499 H         1 UNK         0.3041 
     95 H95        22.8392    0.3756   -2.3037 H         1 UNK         0.0784 
     96 H96        20.3697    0.3695   -1.9030 H         1 UNK         0.0793 
     97 H97        20.4020   -1.3686   -1.6419 H         1 UNK         0.0793 
     98 H98        21.2372   -0.2864   -0.5260 H         1 UNK         0.0793 
     99 H99        22.7117   -2.2340   -1.2133 H         1 UNK         0.3024 
    100 H100       24.5931   -3.3856   -0.8035 H         1 UNK         0.1171 
    101 H101       25.4388   -4.1161   -3.6705 H         1 UNK         0.0786 
    102 H102       23.9439   -4.6070   -2.8865 H         1 UNK         0.0786 
    103 H103       25.4805   -5.2013   -2.2820 H         1 UNK         0.0786 
    104 H104       27.1445   -3.0969   -2.1998 H         1 UNK         0.2977 
    105 H105       24.7950   -1.1578   -9.3848 H         1 UNK         0.3127 
    106 H106       24.3938    1.6785   -9.4610 H         1 UNK         0.0770 
    107 H107       24.8311   -0.3347  -11.7356 H         1 UNK         0.0814 
    108 H108       24.2101    1.2995  -11.9198 H         1 UNK         0.0814 
    109 H109       23.2744    0.1083  -11.0325 H         1 UNK         0.0814 
    110 H110       27.2472   -0.2971   -9.8059 H         1 UNK         0.2983 
    111 H111       28.8915    1.9788  -10.8383 H         1 UNK         0.0947 
    112 H112       30.4701    0.2088  -11.5579 H         1 UNK         0.0806 
    113 H113       28.8866   -0.0789  -12.2531 H         1 UNK         0.0806 
    114 H114       29.4294   -1.0377  -10.8782 H         1 UNK         0.0806 
    115 H115       27.9503    1.7105   -8.0653 H         1 UNK         0.3000 
    116 H116       29.6614    0.6199   -6.2377 H         1 UNK         0.0850 
    117 H117       28.7769    2.4991   -4.6943 H         1 UNK         0.0810 
    118 H118       27.5438    1.5881   -5.5416 H         1 UNK         0.0810 
    119 H119       28.0019    3.1926   -6.1033 H         1 UNK         0.0810 
    120 H120       30.1614    3.7507   -7.8413 H         1 UNK         0.3040 
    121 H121       32.3828    4.6050   -6.2518 H         1 UNK         0.0766 
    122 H122       30.9867    6.1746   -7.5813 H         1 UNK         0.0812 
    123 H123       31.5209    5.4169   -9.0831 H         1 UNK         0.0812 
    124 H124       32.6664    6.2897   -8.0753 H         1 UNK         0.0812 
    125 H125       32.1948    2.2433   -8.8113 H         1 UNK         0.3205 
    126 H126       35.1575    2.3137   -9.2629 H         1 UNK         0.0754 
    127 H127       34.6067    1.3024  -11.4625 H         1 UNK         0.0769 
    128 H128       33.7623    2.8300  -11.2799 H         1 UNK         0.0769 
    129 H129       32.8917    1.3103  -11.0723 H         1 UNK         0.0769 
    130 H130       32.7990    0.6158   -7.5605 H         1 UNK         0.2981 
    131 H131       32.5056   -1.3883   -6.7617 H         1 UNK         0.0541 
    132 H132       31.5243   -0.8889   -9.3226 H         1 UNK         0.3459 
    133 H133       31.5132   -2.4077  -10.2021 H         1 UNK         0.3459 
    134 H134       35.4018   -2.1145   -7.4113 H         1 UNK         0.0612 
    135 H135       34.9151   -1.2226   -5.9983 H         1 UNK         0.0612 
    136 H136       34.4962   -2.2910   -3.7755 H         1 UNK         0.0624 
    137 H137       33.7685   -3.8572   -3.5073 H         1 UNK         0.0624 
@<TRIPOS>BOND
     1    1    2 1    
     2    1   72 1    
     3    1   73 1    
     4    1   74 1    
     5    2    3 2    
     6    2    4 am   BACKBONE|DICT|INTERRES
     7    4    5 1    
     8    4   75 1    
     9    5    6 1    
    10    5   35 1    
    11    5   76 1    
    12    6    7 1    
    13    6   77 1    
    14    6   78 1    
    15    7    8 1    
    16    8    9 1    
    17    8   79 1    
    18    8   80 1    
    19    9   10 ar   
    20    9   14 ar   
    21   10   11 ar   
    22   10   81 1    
    23   11   12 ar   
    24   11   71 1    
    25   12   13 ar   
    26   12   82 1    
    27   13   14 ar   
    28   13   15 1    
    29   14   83 1    
    30   15   16 1    
    31   15   84 1    
    32   15   85 1    
    33   16   17 1    
    34   17   18 1    
    35   17   86 1    
    36   17   87 1    
    37   18   19 1    
    38   18   37 1    
    39   18   88 1    
    40   19   20 am   BACKBONE|DICT|INTERRES
    41   19   89 1    
    42   20   21 2    
    43   20   22 1    
    44   22   23 1    
    45   22   24 1    
    46   22   90 1    
    47   23   91 1    
    48   23   92 1    
    49   23   93 1    
    50   24   25 am   BACKBONE|DICT|INTERRES
    51   24   94 1    
    52   25   26 2    
    53   25   27 1    
    54   27   28 1    
    55   27   29 1    
    56   27   95 1    
    57   28   96 1    
    58   28   97 1    
    59   28   98 1    
    60   29   30 am   BACKBONE|DICT|INTERRES
    61   29   99 1    
    62   30   31 2    
    63   30   32 1    
    64   32   33 1    
    65   32   34 1    
    66   32  100 1    
    67   33  101 1    
    68   33  102 1    
    69   33  103 1    
    70   34   35 am   BACKBONE|DICT|INTERRES
    71   34  104 1    
    72   35   36 2    
    73   37   38 2    
    74   37   39 am   BACKBONE|DICT|INTERRES
    75   39   40 1    
    76   39  105 1    
    77   40   41 1    
    78   40   42 1    
    79   40  106 1    
    80   41  107 1    
    81   41  108 1    
    82   41  109 1    
    83   42   43 2    
    84   42   44 am   BACKBONE|DICT|INTERRES
    85   44   45 1    
    86   44  110 1    
    87   45   46 1    
    88   45   47 1    
    89   45  111 1    
    90   46  112 1    
    91   46  113 1    
    92   46  114 1    
    93   47   48 2    
    94   47   49 am   BACKBONE|DICT|INTERRES
    95   49   50 1    
    96   49  115 1    
    97   50   51 1    
    98   50   52 1    
    99   50  116 1    
   100   51  117 1    
   101   51  118 1    
   102   51  119 1    
   103   52   53 2    
   104   52   54 am   BACKBONE|DICT|INTERRES
   105   54   55 1    
   106   54  120 1    
   107   55   56 1    
   108   55   57 1    
   109   55  121 1    
   110   56  122 1    
   111   56  123 1    
   112   56  124 1    
   113   57   58 2    
   114   57   59 am   BACKBONE|DICT|INTERRES
   115   59   60 1    
   116   59  125 1    
   117   60   61 1    
   118   60   62 1    
   119   60  126 1    
   120   61  127 1    
   121   61  128 1    
   122   61  129 1    
   123   62   63 2    
   124   62   64 am   BACKBONE|DICT|INTERRES
   125   64   65 1    
   126   64  130 1    
   127   65   66 1    
   128   65   69 1    
   129   65  131 1    
   130   66   67 am   BACKBONE|DICT|INTERRES
   131   66   68 2    
   132   67  132 1    
   133   67  133 1    
   134   69   70 1    
   135   69  134 1    
   136   69  135 1    
   137   70   71 1    
   138   71  136 1    
   139   71  137 1    
@<TRIPOS>SUBSTRUCTURE
     1 UNK         1 GROUP             0       ****    0 ROOT    
