@<TRIPOS>MOLECULE
3R137
137   139    1
SMALL
USER_CHARGES


@<TRIPOS>ATOM
      1 CA         22.9806   -4.2606   -1.4194 C.3       0 UNK        -0.2020 
      2 C          24.3630   -3.6775   -1.1724 C.2       0 UNK         0.4855 
      3 O          24.4782   -2.5364   -0.7240 O.2       0 UNK        -0.5197 
      4 N          25.4162   -4.4550   -1.4560 N.am      1 UNK        -0.4892 
      5 CA         26.8144   -4.0616   -1.2529 C.3       1 UNK         0.0835 
      6 C6         27.7679   -5.2794   -1.3355 C.3       12 UNK        -0.0855 
      7 S7         29.2922   -5.0242   -0.3590 S.3       12 UNK        -0.2931 
      8 C8         30.5931   -5.6432   -1.4746 C.3       12 UNK         0.0378 
      9 C9         30.8141   -4.7237   -2.6665 C.ar      12 UNK        -0.0802 
     10 C10        31.5820   -3.5620   -2.5314 C.ar      12 UNK        -0.0944 
     11 C11        31.7794   -2.7111   -3.6238 C.ar      12 UNK        -0.0787 
     12 C12        31.1990   -3.0300   -4.8545 C.ar      12 UNK        -0.0862 
     13 C13        30.4409   -4.1932   -5.0038 C.ar      12 UNK        -0.0733 
     14 C14        30.2571   -5.0398   -3.9088 C.ar      12 UNK        -0.0832 
     15 C15        29.8102   -4.5333   -6.3442 C.3       12 UNK         0.0240 
     16 S16        28.0997   -3.9251   -6.4386 S.3       12 UNK        -0.2522 
     17 C17        28.3824   -2.1300   -6.5756 C.3       12 UNK        -0.0967 
     18 CA         27.0991   -1.3816   -6.9958 C.3       5 UNK         0.0660 
     19 N          26.0483   -1.4791   -5.9770 N.am      5 UNK        -0.4015 
     20 C          24.7548   -1.1994   -6.1884 C.2       4 UNK         0.4946 
     21 O          24.3028   -0.8129   -7.2672 O.2       4 UNK        -0.5353 
     22 CA         23.8195   -1.3356   -4.9796 C.3       4 UNK         0.0277 
     23 CB         23.4524   -2.8073   -4.7346 C.3       4 UNK        -0.1981 
     24 N          24.4188   -0.7513   -3.7767 N.am      4 UNK        -0.4209 
     25 C          24.4685    0.5682   -3.5391 C.2       3 UNK         0.4942 
     26 O          23.9262    1.4101   -4.2544 O.2       3 UNK        -0.5208 
     27 CA         25.2769    1.0409   -2.3187 C.3       3 UNK         0.0250 
     28 CB         24.3840    1.1123   -1.0699 C.3       3 UNK        -0.1990 
     29 N          26.4454    0.2028   -2.0420 N.am      3 UNK        -0.4232 
     30 C          27.5317    0.1295   -2.8263 C.2       2 UNK         0.4993 
     31 O          27.6788    0.7877   -3.8534 O.2       2 UNK        -0.5286 
     32 CA         28.6292   -0.8677   -2.4177 C.3       2 UNK         0.0209 
     33 CB         29.6786   -0.1691   -1.5398 C.3       2 UNK        -0.1931 
     34 N          28.1243   -2.0492   -1.7140 N.am      2 UNK        -0.4546 
     35 C          27.2303   -2.9183   -2.2039 C.2       1 UNK         0.5154 
     36 O          26.7221   -2.8188   -3.3261 O.2       1 UNK        -0.5181 
     37 C          27.4216    0.0664   -7.4218 C.2       5 UNK         0.5014 
     38 O          28.1054    0.2425   -8.4301 O.2       5 UNK        -0.5248 
     39 N          26.9335    1.0834   -6.6956 N.am      6 UNK        -0.4434 
     40 CA         27.0835    2.5111   -7.0066 C.3       6 UNK         0.0363 
     41 CB         26.3537    3.3455   -5.9438 C.3       6 UNK        -0.1936 
     42 C          26.6027    2.9015   -8.4171 C.2       6 UNK         0.5081 
     43 O          27.1887    3.7954   -9.0271 O.2       6 UNK        -0.5248 
     44 N          25.6028    2.1781   -8.9429 N.am      7 UNK        -0.4718 
     45 CA         25.1228    2.2811  -10.3260 C.3       7 UNK         0.0273 
     46 CB         23.8531    1.4280  -10.4757 C.3       7 UNK        -0.1935 
     47 C          26.1697    1.8775  -11.3859 C.2       7 UNK         0.5018 
     48 O          26.0629    2.3180  -12.5306 O.2       7 UNK        -0.5186 
     49 N          27.1633    1.0722  -10.9872 N.am      8 UNK        -0.4240 
     50 CA         28.3185    0.6603  -11.7855 C.3       8 UNK         0.0235 
     51 CB         28.4133   -0.8768  -11.7534 C.3       8 UNK        -0.2000 
     52 C          29.6150    1.3223  -11.2731 C.2       8 UNK         0.4941 
     53 O          30.7003    0.8076  -11.5450 O.2       8 UNK        -0.5273 
     54 N          29.4851    2.4440  -10.5453 N.am      9 UNK        -0.4262 
     55 CA         30.5516    3.2511   -9.9395 C.3       9 UNK         0.0264 
     56 CB         31.5149    3.8133  -11.0082 C.3       9 UNK        -0.1955 
     57 C          31.2826    2.5634   -8.7678 C.2       9 UNK         0.5031 
     58 O          32.4369    2.9015   -8.4956 O.2       9 UNK        -0.5390 
     59 N          30.5893    1.6571   -8.0613 N.am      10 UNK        -0.4204 
     60 CA         31.0289    0.9613   -6.8476 C.3       10 UNK         0.0237 
     61 CB         31.1956    1.9547   -5.6728 C.3       10 UNK        -0.1985 
     62 C          32.2422    0.0522   -7.1184 C.2       10 UNK         0.4970 
     63 O          32.1428   -0.8232   -7.9792 O.2       10 UNK        -0.4914 
     64 N          33.3329    0.2353   -6.3672 N.am      11 UNK        -0.4285 
     65 CA         34.5574   -0.5755   -6.4409 C.3       11 UNK         0.1007 
     66 C          35.8600    0.2470   -6.2221 C.2       11 UNK         0.5703 
     67 N          35.8226    1.5734   -6.2956 N.am      11 UNK        -0.7361 
     68 O          36.9290   -0.3199   -6.0080 O.2       11 UNK        -0.4986 
     69 C69        34.4579   -1.8747   -5.5885 C.3       12 UNK        -0.0947 
     70 S70        34.3551   -1.6173   -3.7799 S.3       12 UNK        -0.2240 
     71 C71        32.5714   -1.4214   -3.4631 C.3       12 UNK         0.0194 
     72 H72        22.2724   -3.4708   -1.6682 H         1 UNK         0.0906 
     73 H73        22.6214   -4.7644   -0.5226 H         1 UNK         0.0906 
     74 H74        22.9896   -4.9787   -2.2392 H         1 UNK         0.0906 
     75 H75        25.2667   -5.3690   -1.8591 H         1 UNK         0.3140 
     76 H76        26.8605   -3.6693   -0.2338 H         1 UNK         0.1085 
     77 H77        27.2830   -6.1634   -0.9178 H         1 UNK         0.0836 
     78 H78        27.9939   -5.5324   -2.3716 H         1 UNK         0.0836 
     79 H79        30.3399   -6.6525   -1.8033 H         1 UNK         0.0731 
     80 H80        31.5236   -5.7334   -0.9120 H         1 UNK         0.0731 
     81 H81        32.0150   -3.3146   -1.5717 H         1 UNK         0.1312 
     82 H82        31.3301   -2.3702   -5.6998 H         1 UNK         0.1406 
     83 H83        29.6680   -5.9393   -4.0251 H         1 UNK         0.1631 
     84 H84        29.8082   -5.6148   -6.4878 H         1 UNK         0.0717 
     85 H85        30.3981   -4.1188   -7.1649 H         1 UNK         0.0717 
     86 H86        28.7514   -1.7502   -5.6223 H         1 UNK         0.0934 
     87 H87        29.1795   -1.9732   -7.3062 H         1 UNK         0.0934 
     88 H88        26.7169   -1.8674   -7.8965 H         1 UNK         0.0739 
     89 H89        26.3295   -1.8467   -5.0724 H         1 UNK         0.3093 
     90 H90        22.8978   -0.7970   -5.2117 H         1 UNK         0.0818 
     91 H91        23.0536   -3.2655   -5.6407 H         1 UNK         0.0819 
     92 H92        24.3132   -3.3997   -4.4225 H         1 UNK         0.0819 
     93 H93        22.6830   -2.8941   -3.9692 H         1 UNK         0.0819 
     94 H94        24.9129   -1.3792   -3.1549 H         1 UNK         0.3041 
     95 H95        25.6355    2.0495   -2.5363 H         1 UNK         0.0784 
     96 H96        23.5244    1.7614   -1.2428 H         1 UNK         0.0793 
     97 H97        23.9992    0.1312   -0.7898 H         1 UNK         0.0793 
     98 H98        24.9271    1.5169   -0.2157 H         1 UNK         0.0793 
     99 H99        26.3993   -0.3904   -1.2255 H         1 UNK         0.3024 
    100 H100       29.1166   -1.2163   -3.3299 H         1 UNK         0.1171 
    101 H101       30.4614   -0.8599   -1.2284 H         1 UNK         0.0786 
    102 H102       30.1587    0.6467   -2.0823 H         1 UNK         0.0786 
    103 H103       29.2338    0.2549   -0.6385 H         1 UNK         0.0786 
    104 H104       28.5101   -2.2246   -0.7969 H         1 UNK         0.2977 
    105 H105       26.4697    0.8632   -5.8242 H         1 UNK         0.3127 
    106 H106       28.1477    2.7451   -6.9485 H         1 UNK         0.0770 
    107 H107       25.2829    3.1389   -5.9352 H         1 UNK         0.0814 
    108 H108       26.4791    4.4129   -6.1309 H         1 UNK         0.0814 
    109 H109       26.7421    3.1455   -4.9450 H         1 UNK         0.0814 
    110 H110       25.1879    1.4533   -8.3716 H         1 UNK         0.2983 
    111 H111       24.8619    3.3253  -10.5119 H         1 UNK         0.0947 
    112 H112       24.0484    0.3748  -10.2684 H         1 UNK         0.0806 
    113 H113       23.4539    1.4936  -11.4889 H         1 UNK         0.0806 
    114 H114       23.0677    1.7626   -9.7976 H         1 UNK         0.0806 
    115 H115       27.1994    0.7855  -10.0124 H         1 UNK         0.3000 
    116 H116       28.1927    0.9733  -12.8239 H         1 UNK         0.0850 
    117 H117       29.2184   -1.2357  -12.3957 H         1 UNK         0.0810 
    118 H118       27.4908   -1.3381  -12.1060 H         1 UNK         0.0810 
    119 H119       28.6095   -1.2460  -10.7458 H         1 UNK         0.0810 
    120 H120       28.5467    2.7808  -10.3596 H         1 UNK         0.3040 
    121 H121       30.0418    4.1060   -9.4926 H         1 UNK         0.0766 
    122 H122       32.1357    3.0320  -11.4470 H         1 UNK         0.0812 
    123 H123       32.1884    4.5542  -10.5758 H         1 UNK         0.0812 
    124 H124       30.9713    4.3051  -11.8147 H         1 UNK         0.0812 
    125 H125       29.6833    1.3605   -8.4145 H         1 UNK         0.3205 
    126 H126       30.2190    0.2865   -6.5735 H         1 UNK         0.0754 
    127 H127       31.4002    1.4393   -4.7349 H         1 UNK         0.0769 
    128 H128       30.2790    2.5241   -5.5167 H         1 UNK         0.0769 
    129 H129       31.9994    2.6715   -5.8435 H         1 UNK         0.0769 
    130 H130       33.3420    0.9761   -5.6817 H         1 UNK         0.2981 
    131 H131       34.6590   -0.9021   -7.4774 H         1 UNK         0.0541 
    132 H132       34.9793    2.0580   -6.5586 H         1 UNK         0.3459 
    133 H133       36.6757    2.0924   -6.1587 H         1 UNK         0.3459 
    134 H134       35.3321   -2.5004   -5.7749 H         1 UNK         0.0612 
    135 H135       33.6155   -2.4764   -5.9232 H         1 UNK         0.0612 
    136 H136       32.1593   -0.6488   -4.1079 H         1 UNK         0.0624 
    137 H137       32.4574   -1.0481   -2.4454 H         1 UNK         0.0624 
@<TRIPOS>BOND
     1    1    2 1    
     2    1   72 1    
     3    1   73 1    
     4    1   74 1    
     5    2    3 2    
     6    2    4 am   BACKBONE|DICT|INTERRES
     7    4    5 1    
     8    4   75 1    
     9    5    6 1    
    10    5   35 1    
    11    5   76 1    
    12    6    7 1    
    13    6   77 1    
    14    6   78 1    
    15    7    8 1    
    16    8    9 1    
    17    8   79 1    
    18    8   80 1    
    19    9   10 ar   
    20    9   14 ar   
    21   10   11 ar   
    22   10   81 1    
    23   11   12 ar   
    24   11   71 1    
    25   12   13 ar   
    26   12   82 1    
    27   13   14 ar   
    28   13   15 1    
    29   14   83 1    
    30   15   16 1    
    31   15   84 1    
    32   15   85 1    
    33   16   17 1    
    34   17   18 1    
    35   17   86 1    
    36   17   87 1    
    37   18   19 1    
    38   18   37 1    
    39   18   88 1    
    40   19   20 am   BACKBONE|DICT|INTERRES
    41   19   89 1    
    42   20   21 2    
    43   20   22 1    
    44   22   23 1    
    45   22   24 1    
    46   22   90 1    
    47   23   91 1    
    48   23   92 1    
    49   23   93 1    
    50   24   25 am   BACKBONE|DICT|INTERRES
    51   24   94 1    
    52   25   26 2    
    53   25   27 1    
    54   27   28 1    
    55   27   29 1    
    56   27   95 1    
    57   28   96 1    
    58   28   97 1    
    59   28   98 1    
    60   29   30 am   BACKBONE|DICT|INTERRES
    61   29   99 1    
    62   30   31 2    
    63   30   32 1    
    64   32   33 1    
    65   32   34 1    
    66   32  100 1    
    67   33  101 1    
    68   33  102 1    
    69   33  103 1    
    70   34   35 am   BACKBONE|DICT|INTERRES
    71   34  104 1    
    72   35   36 2    
    73   37   38 2    
    74   37   39 am   BACKBONE|DICT|INTERRES
    75   39   40 1    
    76   39  105 1    
    77   40   41 1    
    78   40   42 1    
    79   40  106 1    
    80   41  107 1    
    81   41  108 1    
    82   41  109 1    
    83   42   43 2    
    84   42   44 am   BACKBONE|DICT|INTERRES
    85   44   45 1    
    86   44  110 1    
    87   45   46 1    
    88   45   47 1    
    89   45  111 1    
    90   46  112 1    
    91   46  113 1    
    92   46  114 1    
    93   47   48 2    
    94   47   49 am   BACKBONE|DICT|INTERRES
    95   49   50 1    
    96   49  115 1    
    97   50   51 1    
    98   50   52 1    
    99   50  116 1    
   100   51  117 1    
   101   51  118 1    
   102   51  119 1    
   103   52   53 2    
   104   52   54 am   BACKBONE|DICT|INTERRES
   105   54   55 1    
   106   54  120 1    
   107   55   56 1    
   108   55   57 1    
   109   55  121 1    
   110   56  122 1    
   111   56  123 1    
   112   56  124 1    
   113   57   58 2    
   114   57   59 am   BACKBONE|DICT|INTERRES
   115   59   60 1    
   116   59  125 1    
   117   60   61 1    
   118   60   62 1    
   119   60  126 1    
   120   61  127 1    
   121   61  128 1    
   122   61  129 1    
   123   62   63 2    
   124   62   64 am   BACKBONE|DICT|INTERRES
   125   64   65 1    
   126   64  130 1    
   127   65   66 1    
   128   65   69 1    
   129   65  131 1    
   130   66   67 am   BACKBONE|DICT|INTERRES
   131   66   68 2    
   132   67  132 1    
   133   67  133 1    
   134   69   70 1    
   135   69  134 1    
   136   69  135 1    
   137   70   71 1    
   138   71  136 1    
   139   71  137 1    
@<TRIPOS>SUBSTRUCTURE
     1 UNK         1 GROUP             0       ****    0 ROOT    
