@<TRIPOS>MOLECULE
3R137
137   139    1
SMALL
USER_CHARGES


@<TRIPOS>ATOM
      1 CA         28.6885   -4.6826    0.9724 C.3       0 UNK        -0.2020 
      2 C          28.1447   -3.2894    1.2516 C.2       0 UNK         0.4855 
      3 O          27.3894   -3.1052    2.2060 O.2       0 UNK        -0.5197 
      4 N          28.5215   -2.3062    0.4237 N.am      1 UNK        -0.4892 
      5 CA         28.0796   -0.9081    0.5184 C.3       1 UNK         0.0835 
      6 C6         29.0560    0.0454   -0.2212 C.3       12 UNK        -0.0855 
      7 S7         29.1173   -0.2132   -2.0294 S.3       12 UNK        -0.2931 
      8 C8         30.6340   -1.1906   -2.2422 C.3       12 UNK         0.0378 
      9 C9         30.5021   -2.1027   -3.4511 C.ar      12 UNK        -0.0802 
     10 C10        30.9877   -1.7039   -4.6995 C.ar      12 UNK        -0.0944 
     11 C11        30.8594   -2.5439   -5.8109 C.ar      12 UNK        -0.0787 
     12 C12        30.2404   -3.7897   -5.6640 C.ar      12 UNK        -0.0862 
     13 C13        29.7339   -4.1915   -4.4237 C.ar      12 UNK        -0.0733 
     14 C14        29.8749   -3.3451   -3.3212 C.ar      12 UNK        -0.0832 
     15 C15        29.0494   -5.5435   -4.2582 C.3       12 UNK         0.0240 
     16 S16        27.6002   -5.7659   -5.3426 S.3       12 UNK        -0.2522 
     17 C17        26.4821   -4.4129   -4.8349 C.3       12 UNK        -0.0967 
     18 CA         25.9161   -3.6559   -6.0644 C.3       5 UNK         0.0660 
     19 N          24.6537   -2.9764   -5.7679 N.am      5 UNK        -0.4015 
     20 C          23.6951   -2.7403   -6.6768 C.2       4 UNK         0.4946 
     21 O          23.7221   -3.1724   -7.8298 O.2       4 UNK        -0.5353 
     22 CA         22.4981   -1.8750   -6.2404 C.3       4 UNK         0.0277 
     23 CB         21.3373   -2.7649   -5.7668 C.3       4 UNK        -0.1981 
     24 N          22.8247   -0.9082   -5.1905 N.am      4 UNK        -0.4209 
     25 C          23.6413    0.1442   -5.3434 C.2       3 UNK         0.4942 
     26 O          24.1742    0.4529   -6.4092 O.2       3 UNK        -0.5208 
     27 CA         23.9568    0.9595   -4.0764 C.3       3 UNK         0.0250 
     28 CB         22.9382    2.0971   -3.9029 C.3       3 UNK        -0.1990 
     29 N          24.0128    0.1576   -2.8470 N.am      3 UNK        -0.4232 
     30 C          24.8332   -0.8830   -2.6449 C.2       2 UNK         0.4993 
     31 O          25.6058   -1.3263   -3.4995 O.2       2 UNK        -0.5286 
     32 CA         24.7341   -1.5909   -1.2887 C.3       2 UNK         0.0209 
     33 CB         24.1783   -3.0142   -1.4652 C.3       2 UNK        -0.1931 
     34 N          26.0594   -1.6653   -0.6820 N.am      2 UNK        -0.4546 
     35 C          26.6134   -0.7013    0.0669 C.2       1 UNK         0.5154 
     36 O          26.0166    0.3235    0.4030 O.2       1 UNK        -0.5181 
     37 C          26.9269   -2.6540   -6.6526 C.2       5 UNK         0.5014 
     38 O          27.5930   -2.9808   -7.6363 O.2       5 UNK        -0.5248 
     39 N          26.9987   -1.4517   -6.0571 N.am      6 UNK        -0.4434 
     40 CA         27.8797   -0.3594   -6.4728 C.3       6 UNK         0.0363 
     41 CB         27.7415    0.8284   -5.5087 C.3       6 UNK        -0.1936 
     42 C          27.6459    0.0978   -7.9185 C.2       6 UNK         0.5081 
     43 O          28.6105    0.1862   -8.6797 O.2       6 UNK        -0.5248 
     44 N          26.3810    0.3869   -8.2621 N.am      7 UNK        -0.4718 
     45 CA         25.9134    0.9112   -9.5498 C.3       7 UNK         0.0273 
     46 CB         26.0033   -0.1773  -10.6430 C.3       7 UNK        -0.1935 
     47 C          26.6281    2.2284   -9.9119 C.2       7 UNK         0.5018 
     48 O          26.2816    3.2722   -9.3577 O.2       7 UNK        -0.5186 
     49 N          27.6301    2.1524  -10.7984 N.am      8 UNK        -0.4240 
     50 CA         28.5188    3.2592  -11.1642 C.3       8 UNK         0.0235 
     51 CB         29.2151    2.9152  -12.4923 C.3       8 UNK        -0.2000 
     52 C          29.5668    3.6004  -10.0842 C.2       8 UNK         0.4941 
     53 O          30.1897    4.6580  -10.1829 O.2       8 UNK        -0.5273 
     54 N          29.7602    2.7064   -9.0998 N.am      9 UNK        -0.4262 
     55 CA         30.7366    2.7696   -8.0040 C.3       9 UNK         0.0264 
     56 CB         30.4513    3.9607   -7.0648 C.3       9 UNK        -0.1955 
     57 C          32.1924    2.7185   -8.5066 C.2       9 UNK         0.5031 
     58 O          33.0588    3.4173   -7.9783 O.2       9 UNK        -0.5390 
     59 N          32.4311    1.8817   -9.5263 N.am      10 UNK        -0.4204 
     60 CA         33.7329    1.6926  -10.1731 C.3       10 UNK         0.0237 
     61 CB         33.5088    1.0667  -11.5601 C.3       10 UNK        -0.1985 
     62 C          34.7238    0.8437   -9.3533 C.2       10 UNK         0.4970 
     63 O          35.9206    0.8858   -9.6421 O.2       10 UNK        -0.4914 
     64 N          34.2191    0.0757   -8.3785 N.am      11 UNK        -0.4285 
     65 CA         35.0015   -0.7924   -7.4855 C.3       11 UNK         0.1007 
     66 C          36.0018   -0.0016   -6.5976 C.2       11 UNK         0.5703 
     67 N          37.1921   -0.5406   -6.3702 N.am      11 UNK        -0.7361 
     68 O          35.6913    1.0690   -6.0786 O.2       11 UNK        -0.4986 
     69 C69        34.0833   -1.6776   -6.6035 C.3       12 UNK        -0.0947 
     70 S70        32.9860   -2.7575   -7.5840 S.3       12 UNK        -0.2240 
     71 C71        31.3410   -2.0908   -7.1826 C.3       12 UNK         0.0194 
     72 H72        27.8710   -5.3644    0.7396 H         1 UNK         0.0906 
     73 H73        29.3869   -4.6909    0.1360 H         1 UNK         0.0906 
     74 H74        29.2097   -5.0639    1.8502 H         1 UNK         0.0906 
     75 H75        29.1469   -2.5069   -0.3411 H         1 UNK         0.3140 
     76 H76        28.1042   -0.6322    1.5754 H         1 UNK         0.1085 
     77 H77        28.7683    1.0832   -0.0417 H         1 UNK         0.0836 
     78 H78        30.0598   -0.0493    0.1961 H         1 UNK         0.0836 
     79 H79        31.4845   -0.5167   -2.3564 H         1 UNK         0.0731 
     80 H80        30.8339   -1.7882   -1.3521 H         1 UNK         0.0731 
     81 H81        31.4498   -0.7325   -4.8064 H         1 UNK         0.1312 
     82 H82        30.1288   -4.4374   -6.5230 H         1 UNK         0.1406 
     83 H83        29.4891   -3.6516   -2.3598 H         1 UNK         0.1631 
     84 H84        28.7349   -5.6988   -3.2249 H         1 UNK         0.0717 
     85 H85        29.7724   -6.3301   -4.4777 H         1 UNK         0.0717 
     86 H86        25.6674   -4.8730   -4.2738 H         1 UNK         0.0934 
     87 H87        26.9759   -3.7333   -4.1374 H         1 UNK         0.0934 
     88 H88        25.7121   -4.3984   -6.8397 H         1 UNK         0.0739 
     89 H89        24.5931   -2.5301   -4.8610 H         1 UNK         0.3093 
     90 H90        22.1649   -1.3149   -7.1170 H         1 UNK         0.0818 
     91 H91        20.4515   -2.1731   -5.5352 H         1 UNK         0.0819 
     92 H92        21.0530   -3.4791   -6.5410 H         1 UNK         0.0819 
     93 H93        21.6023   -3.3379   -4.8772 H         1 UNK         0.0819 
     94 H94        22.4245   -1.0720   -4.2782 H         1 UNK         0.3041 
     95 H95        24.9421    1.4073   -4.2121 H         1 UNK         0.0784 
     96 H96        22.8952    2.7215   -4.7966 H         1 UNK         0.0793 
     97 H97        21.9319    1.7167   -3.7225 H         1 UNK         0.0793 
     98 H98        23.2067    2.7474   -3.0700 H         1 UNK         0.0793 
     99 H99        23.4063    0.4514   -2.0943 H         1 UNK         0.3024 
    100 H100       24.0617   -1.0357   -0.6304 H         1 UNK         0.1171 
    101 H101       23.1842   -2.9941   -1.9139 H         1 UNK         0.0786 
    102 H102       24.0893   -3.5244   -0.5059 H         1 UNK         0.0786 
    103 H103       24.8150   -3.6233   -2.1083 H         1 UNK         0.0786 
    104 H104       26.6409   -2.4432   -0.9546 H         1 UNK         0.2977 
    105 H105       26.4502   -1.2966   -5.2149 H         1 UNK         0.3127 
    106 H106       28.9009   -0.7295   -6.4047 H         1 UNK         0.0770 
    107 H107       26.7811    1.3307   -5.6181 H         1 UNK         0.0814 
    108 H108       28.5178    1.5711   -5.6953 H         1 UNK         0.0814 
    109 H109       27.8348    0.5126   -4.4715 H         1 UNK         0.0814 
    110 H110       25.6632    0.3186   -7.5421 H         1 UNK         0.2983 
    111 H111       24.8591    1.1606   -9.4181 H         1 UNK         0.0947 
    112 H112       25.6592    0.2021  -11.6062 H         1 UNK         0.0806 
    113 H113       25.3710   -1.0291  -10.3910 H         1 UNK         0.0806 
    114 H114       27.0170   -0.5563  -10.7764 H         1 UNK         0.0806 
    115 H115       27.8589    1.2427  -11.1728 H         1 UNK         0.3000 
    116 H116       27.9098    4.1528  -11.3174 H         1 UNK         0.0850 
    117 H117       29.8588    3.7330  -12.8198 H         1 UNK         0.0810 
    118 H118       28.4900    2.7396  -13.2872 H         1 UNK         0.0810 
    119 H119       29.8400    2.0256  -12.4035 H         1 UNK         0.0810 
    120 H120       29.2088    1.8492   -9.1208 H         1 UNK         0.3040 
    121 H121       30.5916    1.8587   -7.4211 H         1 UNK         0.0766 
    122 H122       29.4164    3.9569   -6.7229 H         1 UNK         0.0812 
    123 H123       30.6406    4.9173   -7.5525 H         1 UNK         0.0812 
    124 H124       31.0855    3.9186   -6.1784 H         1 UNK         0.0812 
    125 H125       31.6556    1.3547   -9.9016 H         1 UNK         0.3205 
    126 H126       34.1897    2.6747  -10.3138 H         1 UNK         0.0754 
    127 H127       34.4536    0.9465  -12.0923 H         1 UNK         0.0769 
    128 H128       32.8687    1.6947  -12.1806 H         1 UNK         0.0769 
    129 H129       33.0474    0.0807  -11.4895 H         1 UNK         0.0769 
    130 H130       33.2276    0.1074   -8.2072 H         1 UNK         0.2981 
    131 H131       35.5841   -1.4548   -8.1292 H         1 UNK         0.0541 
    132 H132       37.8477   -0.0494   -5.7829 H         1 UNK         0.3459 
    133 H133       37.4517   -1.4247   -6.7796 H         1 UNK         0.3459 
    134 H134       33.4928   -1.0558   -5.9303 H         1 UNK         0.0612 
    135 H135       34.6836   -2.3270   -5.9636 H         1 UNK         0.0612 
    136 H136       31.3559   -1.0020   -7.2483 H         1 UNK         0.0624 
    137 H137       30.6319   -2.4262   -7.9414 H         1 UNK         0.0624 
@<TRIPOS>BOND
     1    1    2 1    
     2    1   72 1    
     3    1   73 1    
     4    1   74 1    
     5    2    3 2    
     6    2    4 am   BACKBONE|DICT|INTERRES
     7    4    5 1    
     8    4   75 1    
     9    5    6 1    
    10    5   35 1    
    11    5   76 1    
    12    6    7 1    
    13    6   77 1    
    14    6   78 1    
    15    7    8 1    
    16    8    9 1    
    17    8   79 1    
    18    8   80 1    
    19    9   10 ar   
    20    9   14 ar   
    21   10   11 ar   
    22   10   81 1    
    23   11   12 ar   
    24   11   71 1    
    25   12   13 ar   
    26   12   82 1    
    27   13   14 ar   
    28   13   15 1    
    29   14   83 1    
    30   15   16 1    
    31   15   84 1    
    32   15   85 1    
    33   16   17 1    
    34   17   18 1    
    35   17   86 1    
    36   17   87 1    
    37   18   19 1    
    38   18   37 1    
    39   18   88 1    
    40   19   20 am   BACKBONE|DICT|INTERRES
    41   19   89 1    
    42   20   21 2    
    43   20   22 1    
    44   22   23 1    
    45   22   24 1    
    46   22   90 1    
    47   23   91 1    
    48   23   92 1    
    49   23   93 1    
    50   24   25 am   BACKBONE|DICT|INTERRES
    51   24   94 1    
    52   25   26 2    
    53   25   27 1    
    54   27   28 1    
    55   27   29 1    
    56   27   95 1    
    57   28   96 1    
    58   28   97 1    
    59   28   98 1    
    60   29   30 am   BACKBONE|DICT|INTERRES
    61   29   99 1    
    62   30   31 2    
    63   30   32 1    
    64   32   33 1    
    65   32   34 1    
    66   32  100 1    
    67   33  101 1    
    68   33  102 1    
    69   33  103 1    
    70   34   35 am   BACKBONE|DICT|INTERRES
    71   34  104 1    
    72   35   36 2    
    73   37   38 2    
    74   37   39 am   BACKBONE|DICT|INTERRES
    75   39   40 1    
    76   39  105 1    
    77   40   41 1    
    78   40   42 1    
    79   40  106 1    
    80   41  107 1    
    81   41  108 1    
    82   41  109 1    
    83   42   43 2    
    84   42   44 am   BACKBONE|DICT|INTERRES
    85   44   45 1    
    86   44  110 1    
    87   45   46 1    
    88   45   47 1    
    89   45  111 1    
    90   46  112 1    
    91   46  113 1    
    92   46  114 1    
    93   47   48 2    
    94   47   49 am   BACKBONE|DICT|INTERRES
    95   49   50 1    
    96   49  115 1    
    97   50   51 1    
    98   50   52 1    
    99   50  116 1    
   100   51  117 1    
   101   51  118 1    
   102   51  119 1    
   103   52   53 2    
   104   52   54 am   BACKBONE|DICT|INTERRES
   105   54   55 1    
   106   54  120 1    
   107   55   56 1    
   108   55   57 1    
   109   55  121 1    
   110   56  122 1    
   111   56  123 1    
   112   56  124 1    
   113   57   58 2    
   114   57   59 am   BACKBONE|DICT|INTERRES
   115   59   60 1    
   116   59  125 1    
   117   60   61 1    
   118   60   62 1    
   119   60  126 1    
   120   61  127 1    
   121   61  128 1    
   122   61  129 1    
   123   62   63 2    
   124   62   64 am   BACKBONE|DICT|INTERRES
   125   64   65 1    
   126   64  130 1    
   127   65   66 1    
   128   65   69 1    
   129   65  131 1    
   130   66   67 am   BACKBONE|DICT|INTERRES
   131   66   68 2    
   132   67  132 1    
   133   67  133 1    
   134   69   70 1    
   135   69  134 1    
   136   69  135 1    
   137   70   71 1    
   138   71  136 1    
   139   71  137 1    
@<TRIPOS>SUBSTRUCTURE
     1 UNK         1 GROUP             0       ****    0 ROOT    
