@<TRIPOS>MOLECULE
3R137
137   139    1
SMALL
USER_CHARGES


@<TRIPOS>ATOM
      1 CA         27.7122   -6.3966    0.5304 C.3       0 UNK        -0.2020 
      2 C          27.5936   -5.0315   -0.1295 C.2       0 UNK         0.4855 
      3 O          27.4492   -4.9587   -1.3489 O.2       0 UNK        -0.5197 
      4 N          27.6483   -3.9575    0.6706 N.am      1 UNK        -0.4892 
      5 CA         27.5860   -2.5316    0.3029 C.3       1 UNK         0.0835 
      6 C6         28.7001   -2.0660   -0.6695 C.3       12 UNK        -0.0855 
      7 S7         30.3904   -2.3200   -0.0184 S.3       12 UNK        -0.2931 
      8 C8         31.0589   -3.6320   -1.0994 C.3       12 UNK         0.0378 
      9 C9         30.9294   -3.2893   -2.5776 C.ar      12 UNK        -0.0802 
     10 C10        31.6253   -2.2046   -3.1208 C.ar      12 UNK        -0.0944 
     11 C11        31.4371   -1.8358   -4.4568 C.ar      12 UNK        -0.0787 
     12 C12        30.5627   -2.5815   -5.2549 C.ar      12 UNK        -0.0862 
     13 C13        29.8668   -3.6719   -4.7248 C.ar      12 UNK        -0.0733 
     14 C14        30.0658   -4.0294   -3.3902 C.ar      12 UNK        -0.0832 
     15 C15        28.8761   -4.4465   -5.5805 C.3       12 UNK         0.0240 
     16 S16        27.1547   -4.0643   -5.1072 S.3       12 UNK        -0.2522 
     17 C17        26.3461   -3.9297   -6.7414 C.3       12 UNK        -0.0967 
     18 CA         26.1225   -2.4919   -7.2904 C.3       5 UNK         0.0660 
     19 N          24.8756   -1.8723   -6.8324 N.am      5 UNK        -0.4015 
     20 C          24.2696   -0.8741   -7.4962 C.2       4 UNK         0.4946 
     21 O          24.6925   -0.3964   -8.5503 O.2       4 UNK        -0.5353 
     22 CA         22.9945   -0.2877   -6.8710 C.3       4 UNK         0.0277 
     23 CB         21.8012   -1.2381   -7.0626 C.3       4 UNK        -0.1981 
     24 N          23.1520    0.0323   -5.4522 N.am      4 UNK        -0.4209 
     25 C          24.0006    0.9505   -4.9679 C.2       3 UNK         0.4942 
     26 O          24.7390    1.6439   -5.6665 O.2       3 UNK        -0.5208 
     27 CA         24.0585    1.0989   -3.4385 C.3       3 UNK         0.0250 
     28 CB         23.0028    2.1062   -2.9557 C.3       3 UNK        -0.1990 
     29 N          23.9044   -0.1639   -2.7069 N.am      3 UNK        -0.4232 
     30 C          24.7066   -1.2290   -2.8425 C.2       2 UNK         0.4993 
     31 O          25.6217   -1.2991   -3.6663 O.2       2 UNK        -0.5286 
     32 CA         24.4295   -2.4238   -1.9169 C.3       2 UNK         0.0209 
     33 CB         23.9167   -3.6309   -2.7187 C.3       2 UNK        -0.1931 
     34 N          25.6460   -2.7983   -1.1980 N.am      2 UNK        -0.4546 
     35 C          26.2042   -2.0801   -0.2162 C.2       1 UNK         0.5154 
     36 O          25.6710   -1.0863    0.2807 O.2       1 UNK        -0.5181 
     37 C          27.3200   -1.5396   -7.1040 C.2       5 UNK         0.5014 
     38 O          28.1966   -1.5121   -7.9677 O.2       5 UNK        -0.5248 
     39 N          27.3189   -0.7515   -6.0163 N.am      6 UNK        -0.4434 
     40 CA         28.3282    0.2692   -5.7380 C.3       6 UNK         0.0363 
     41 CB         28.1120    0.8712   -4.3423 C.3       6 UNK        -0.1936 
     42 C          28.3869    1.3554   -6.8206 C.2       6 UNK         0.5081 
     43 O          29.4761    1.6562   -7.3111 O.2       6 UNK        -0.5248 
     44 N          27.2161    1.8795   -7.2101 N.am      7 UNK        -0.4718 
     45 CA         27.0623    2.8476   -8.2977 C.3       7 UNK         0.0273 
     46 CB         25.6200    3.3777   -8.3140 C.3       7 UNK        -0.1935 
     47 C          27.4423    2.2774   -9.6743 C.2       7 UNK         0.5018 
     48 O          28.0364    2.9992  -10.4757 O.2       7 UNK        -0.5186 
     49 N          27.1028    1.0035   -9.9228 N.am      8 UNK        -0.4240 
     50 CA         27.4453    0.2886  -11.1541 C.3       8 UNK         0.0235 
     51 CB         26.6410   -1.0182  -11.2436 C.3       8 UNK        -0.2000 
     52 C          28.9526    0.0118  -11.2817 C.2       8 UNK         0.4941 
     53 O          29.5129    0.2283  -12.3571 O.2       8 UNK        -0.5273 
     54 N          29.5777   -0.4649  -10.1956 N.am      9 UNK        -0.4262 
     55 CA         31.0070   -0.7766  -10.1386 C.3       9 UNK         0.0264 
     56 CB         31.3013   -1.6395   -8.9039 C.3       9 UNK        -0.1955 
     57 C          31.8916    0.4777  -10.1212 C.2       9 UNK         0.5031 
     58 O          32.9113    0.4918  -10.8122 O.2       9 UNK        -0.5390 
     59 N          31.4929    1.4865   -9.3279 N.am      10 UNK        -0.4204 
     60 CA         32.1988    2.7478   -9.0769 C.3       10 UNK         0.0237 
     61 CB         32.1815    3.6410  -10.3357 C.3       10 UNK        -0.1985 
     62 C          33.6147    2.5115   -8.5150 C.2       10 UNK         0.4970 
     63 O          34.6021    2.8998   -9.1426 O.2       10 UNK        -0.4914 
     64 N          33.6793    1.8484   -7.3506 N.am      11 UNK        -0.4285 
     65 CA         34.9271    1.4649   -6.6627 C.3       11 UNK         0.1007 
     66 C          35.8511    2.6494   -6.2469 C.2       11 UNK         0.5703 
     67 N          35.3426    3.8669   -6.0949 N.am      11 UNK        -0.7361 
     68 O          37.0496    2.4554   -6.0573 O.2       11 UNK        -0.4986 
     69 C69        34.6675    0.5560   -5.4303 C.3       12 UNK        -0.0947 
     70 S70        33.7252   -0.9701   -5.7826 S.3       12 UNK        -0.2240 
     71 C71        32.1257   -0.5913   -5.0033 C.3       12 UNK         0.0194 
     72 H72        28.5698   -6.9335    0.1259 H         1 UNK         0.0906 
     73 H73        27.8384   -6.3206    1.6102 H         1 UNK         0.0906 
     74 H74        26.8174   -6.9865    0.3335 H         1 UNK         0.0906 
     75 H75        27.7451   -4.1160    1.6644 H         1 UNK         0.3140 
     76 H76        27.7380   -1.9921    1.2396 H         1 UNK         0.1085 
     77 H77        28.6008   -0.9969   -0.8685 H         1 UNK         0.0836 
     78 H78        28.5782   -2.5484   -1.6387 H         1 UNK         0.0836 
     79 H79        32.1110   -3.7893   -0.8580 H         1 UNK         0.0731 
     80 H80        30.5491   -4.5693   -0.8718 H         1 UNK         0.0731 
     81 H81        32.2821   -1.6225   -2.4886 H         1 UNK         0.1312 
     82 H82        30.3933   -2.2975   -6.2818 H         1 UNK         0.1406 
     83 H83        29.5081   -4.8582   -2.9750 H         1 UNK         0.1631 
     84 H84        29.0425   -4.2157   -6.6337 H         1 UNK         0.0717 
     85 H85        29.0484   -5.5179   -5.4700 H         1 UNK         0.0717 
     86 H86        26.9315   -4.5002   -7.4642 H         1 UNK         0.0934 
     87 H87        25.3922   -4.4567   -6.6878 H         1 UNK         0.0934 
     88 H88        26.0120   -2.6147   -8.3702 H         1 UNK         0.0739 
     89 H89        24.5157   -2.1718   -5.9380 H         1 UNK         0.3093 
     90 H90        22.7725    0.6443   -7.3959 H         1 UNK         0.0818 
     91 H91        20.8733   -0.7839   -6.7144 H         1 UNK         0.0819 
     92 H92        21.6634   -1.4817   -8.1171 H         1 UNK         0.0819 
     93 H93        21.9366   -2.1780   -6.5262 H         1 UNK         0.0819 
     94 H94        22.5851   -0.4857   -4.7971 H         1 UNK         0.3041 
     95 H95        25.0431    1.4977   -3.1879 H         1 UNK         0.0784 
     96 H96        23.1104    3.0612   -3.4724 H         1 UNK         0.0793 
     97 H97        21.9882    1.7496   -3.1382 H         1 UNK         0.0793 
     98 H98        23.1027    2.3058   -1.8885 H         1 UNK         0.0793 
     99 H99        23.1776   -0.1888   -2.0059 H         1 UNK         0.3024 
    100 H100       23.6682   -2.1473   -1.1840 H         1 UNK         0.1171 
    101 H101       23.6905   -4.4730   -2.0644 H         1 UNK         0.0786 
    102 H102       23.0016   -3.3835   -3.2581 H         1 UNK         0.0786 
    103 H103       24.6488   -3.9680   -3.4531 H         1 UNK         0.0786 
    104 H104       26.1764   -3.5919   -1.5515 H         1 UNK         0.2977 
    105 H105       26.6018   -0.8915   -5.3081 H         1 UNK         0.3127 
    106 H106       29.2906   -0.2333   -5.7359 H         1 UNK         0.0770 
    107 H107       27.1572    1.3907   -4.2714 H         1 UNK         0.0814 
    108 H108       28.8955    1.5914   -4.1038 H         1 UNK         0.0814 
    109 H109       28.1338    0.0995   -3.5721 H         1 UNK         0.0814 
    110 H110       26.3658    1.6007   -6.7257 H         1 UNK         0.2983 
    111 H111       27.7332    3.6850   -8.0938 H         1 UNK         0.0947 
    112 H112       25.4793    4.1086   -9.1114 H         1 UNK         0.0806 
    113 H113       25.3689    3.8700   -7.3743 H         1 UNK         0.0806 
    114 H114       24.8983    2.5749   -8.4724 H         1 UNK         0.0806 
    115 H115       26.5663    0.4963   -9.2279 H         1 UNK         0.3000 
    116 H116       27.1531    0.9197  -11.9963 H         1 UNK         0.0850 
    117 H117       26.8499   -1.5407  -12.1780 H         1 UNK         0.0810 
    118 H118       25.5682   -0.8270  -11.2116 H         1 UNK         0.0810 
    119 H119       26.8841   -1.6994  -10.4285 H         1 UNK         0.0810 
    120 H120       29.0302   -0.6763   -9.3620 H         1 UNK         0.3040 
    121 H121       31.2620   -1.3583  -11.0271 H         1 UNK         0.0766 
    122 H122       30.7021   -2.5502   -8.8983 H         1 UNK         0.0812 
    123 H123       31.0918   -1.0888   -7.9878 H         1 UNK         0.0812 
    124 H124       32.3505   -1.9363   -8.8724 H         1 UNK         0.0812 
    125 H125       30.6479    1.3612   -8.7729 H         1 UNK         0.3205 
    126 H126       31.6362    3.2676   -8.2998 H         1 UNK         0.0754 
    127 H127       32.6320    4.6128  -10.1305 H         1 UNK         0.0769 
    128 H128       31.1614    3.8205  -10.6762 H         1 UNK         0.0769 
    129 H129       32.7353    3.1934  -11.1617 H         1 UNK         0.0769 
    130 H130       32.8215    1.5566   -6.9084 H         1 UNK         0.2981 
    131 H131       35.5003    0.8783   -7.3831 H         1 UNK         0.0541 
    132 H132       34.3616    4.0355   -6.2473 H         1 UNK         0.3459 
    133 H133       35.9503    4.6253   -5.8282 H         1 UNK         0.3459 
    134 H134       35.6187    0.2343   -5.0017 H         1 UNK         0.0612 
    135 H135       34.1740    1.1270   -4.6427 H         1 UNK         0.0612 
    136 H136       31.4992   -0.0908   -5.7403 H         1 UNK         0.0624 
    137 H137       32.2564    0.1210   -4.1880 H         1 UNK         0.0624 
@<TRIPOS>BOND
     1    1    2 1    
     2    1   72 1    
     3    1   73 1    
     4    1   74 1    
     5    2    3 2    
     6    2    4 am   BACKBONE|DICT|INTERRES
     7    4    5 1    
     8    4   75 1    
     9    5    6 1    
    10    5   35 1    
    11    5   76 1    
    12    6    7 1    
    13    6   77 1    
    14    6   78 1    
    15    7    8 1    
    16    8    9 1    
    17    8   79 1    
    18    8   80 1    
    19    9   10 ar   
    20    9   14 ar   
    21   10   11 ar   
    22   10   81 1    
    23   11   12 ar   
    24   11   71 1    
    25   12   13 ar   
    26   12   82 1    
    27   13   14 ar   
    28   13   15 1    
    29   14   83 1    
    30   15   16 1    
    31   15   84 1    
    32   15   85 1    
    33   16   17 1    
    34   17   18 1    
    35   17   86 1    
    36   17   87 1    
    37   18   19 1    
    38   18   37 1    
    39   18   88 1    
    40   19   20 am   BACKBONE|DICT|INTERRES
    41   19   89 1    
    42   20   21 2    
    43   20   22 1    
    44   22   23 1    
    45   22   24 1    
    46   22   90 1    
    47   23   91 1    
    48   23   92 1    
    49   23   93 1    
    50   24   25 am   BACKBONE|DICT|INTERRES
    51   24   94 1    
    52   25   26 2    
    53   25   27 1    
    54   27   28 1    
    55   27   29 1    
    56   27   95 1    
    57   28   96 1    
    58   28   97 1    
    59   28   98 1    
    60   29   30 am   BACKBONE|DICT|INTERRES
    61   29   99 1    
    62   30   31 2    
    63   30   32 1    
    64   32   33 1    
    65   32   34 1    
    66   32  100 1    
    67   33  101 1    
    68   33  102 1    
    69   33  103 1    
    70   34   35 am   BACKBONE|DICT|INTERRES
    71   34  104 1    
    72   35   36 2    
    73   37   38 2    
    74   37   39 am   BACKBONE|DICT|INTERRES
    75   39   40 1    
    76   39  105 1    
    77   40   41 1    
    78   40   42 1    
    79   40  106 1    
    80   41  107 1    
    81   41  108 1    
    82   41  109 1    
    83   42   43 2    
    84   42   44 am   BACKBONE|DICT|INTERRES
    85   44   45 1    
    86   44  110 1    
    87   45   46 1    
    88   45   47 1    
    89   45  111 1    
    90   46  112 1    
    91   46  113 1    
    92   46  114 1    
    93   47   48 2    
    94   47   49 am   BACKBONE|DICT|INTERRES
    95   49   50 1    
    96   49  115 1    
    97   50   51 1    
    98   50   52 1    
    99   50  116 1    
   100   51  117 1    
   101   51  118 1    
   102   51  119 1    
   103   52   53 2    
   104   52   54 am   BACKBONE|DICT|INTERRES
   105   54   55 1    
   106   54  120 1    
   107   55   56 1    
   108   55   57 1    
   109   55  121 1    
   110   56  122 1    
   111   56  123 1    
   112   56  124 1    
   113   57   58 2    
   114   57   59 am   BACKBONE|DICT|INTERRES
   115   59   60 1    
   116   59  125 1    
   117   60   61 1    
   118   60   62 1    
   119   60  126 1    
   120   61  127 1    
   121   61  128 1    
   122   61  129 1    
   123   62   63 2    
   124   62   64 am   BACKBONE|DICT|INTERRES
   125   64   65 1    
   126   64  130 1    
   127   65   66 1    
   128   65   69 1    
   129   65  131 1    
   130   66   67 am   BACKBONE|DICT|INTERRES
   131   66   68 2    
   132   67  132 1    
   133   67  133 1    
   134   69   70 1    
   135   69  134 1    
   136   69  135 1    
   137   70   71 1    
   138   71  136 1    
   139   71  137 1    
@<TRIPOS>SUBSTRUCTURE
     1 UNK         1 GROUP             0       ****    0 ROOT    
