@<TRIPOS>MOLECULE
3R137
137   139    1
SMALL
USER_CHARGES


@<TRIPOS>ATOM
      1 CA         28.7590   -4.0355    2.1243 C.3       0 UNK        -0.2020 
      2 C          28.5646   -3.3103    0.8018 C.2       0 UNK         0.4855 
      3 O          28.0784   -3.9132   -0.1551 O.2       0 UNK        -0.5197 
      4 N          28.9426   -2.0252    0.7458 N.am      1 UNK        -0.4892 
      5 CA         28.8707   -1.0978   -0.3975 C.3       1 UNK         0.0835 
      6 C6         29.6717   -1.5474   -1.6496 C.3       12 UNK        -0.0855 
      7 S7         31.4458   -1.8564   -1.3162 S.3       12 UNK        -0.2931 
      8 C8         31.5900   -3.6768   -1.3975 C.3       12 UNK         0.0378 
      9 C9         31.2394   -4.2193   -2.7755 C.ar      12 UNK        -0.0802 
     10 C10        32.1638   -4.1532   -3.8216 C.ar      12 UNK        -0.0944 
     11 C11        31.8048   -4.5595   -5.1128 C.ar      12 UNK        -0.0787 
     12 C12        30.5284   -5.0844   -5.3359 C.ar      12 UNK        -0.0862 
     13 C13        29.5971   -5.1570   -4.2956 C.ar      12 UNK        -0.0733 
     14 C14        29.9692   -4.7485   -3.0145 C.ar      12 UNK        -0.0832 
     15 C15        28.1673   -5.6152   -4.5534 C.3       12 UNK         0.0240 
     16 S16        27.3475   -4.6928   -5.8991 S.3       12 UNK        -0.2522 
     17 C17        27.8210   -2.9561   -5.5752 C.3       12 UNK        -0.0967 
     18 CA         27.1278   -2.0157   -6.5860 C.3       5 UNK         0.0660 
     19 N          25.6919   -1.9009   -6.3308 N.am      5 UNK        -0.4015 
     20 C          24.7598   -1.7452   -7.2792 C.2       4 UNK         0.4946 
     21 O          25.0025   -1.7302   -8.4863 O.2       4 UNK        -0.5353 
     22 CA         23.3051   -1.5671   -6.8062 C.3       4 UNK         0.0277 
     23 CB         22.5919   -2.9275   -6.7444 C.3       4 UNK        -0.1981 
     24 N          23.1871   -0.8977   -5.5071 N.am      4 UNK        -0.4209 
     25 C          23.5362    0.3759   -5.2783 C.2       3 UNK         0.4942 
     26 O          23.9786    1.1296   -6.1436 O.2       3 UNK        -0.5208 
     27 CA         23.4196    0.8827   -3.8307 C.3       3 UNK         0.0250 
     28 CB         21.9923    1.3802   -3.5519 C.3       3 UNK        -0.1990 
     29 N          23.8113   -0.0877   -2.8001 N.am      3 UNK        -0.4232 
     30 C          24.9776   -0.7471   -2.7427 C.2       2 UNK         0.4993 
     31 O          25.8301   -0.7223   -3.6337 O.2       2 UNK        -0.5286 
     32 CA         25.1981   -1.6299   -1.5040 C.3       2 UNK         0.0209 
     33 CB         24.6630   -3.0468   -1.7691 C.3       2 UNK        -0.1931 
     34 N          26.6065   -1.7301   -1.1146 N.am      2 UNK        -0.4546 
     35 C          27.4177   -0.7226   -0.7656 C.2       1 UNK         0.5154 
     36 O          27.0580    0.4536   -0.6917 O.2       1 UNK        -0.5181 
     37 C          27.7838   -0.6241   -6.6300 C.2       5 UNK         0.5014 
     38 O          28.6739   -0.4112   -7.4532 O.2       5 UNK        -0.5248 
     39 N          27.3059    0.3195   -5.8044 N.am      6 UNK        -0.4434 
     40 CA         27.7053    1.7301   -5.8405 C.3       6 UNK         0.0363 
     41 CB         27.0571    2.4883   -4.6734 C.3       6 UNK        -0.1936 
     42 C          27.3776    2.4044   -7.1851 C.2       6 UNK         0.5081 
     43 O          28.1927    3.1727   -7.6959 O.2       6 UNK        -0.5248 
     44 N          26.2226    2.0527   -7.7691 N.am      7 UNK        -0.4718 
     45 CA         25.7679    2.4847   -9.0950 C.3       7 UNK         0.0273 
     46 CB         24.3351    1.9776   -9.3255 C.3       7 UNK        -0.1935 
     47 C          26.6800    2.0586  -10.2626 C.2       7 UNK         0.5018 
     48 O          26.5992    2.6700  -11.3286 O.2       7 UNK        -0.5186 
     49 N          27.5417    1.0507  -10.0543 N.am      8 UNK        -0.4240 
     50 CA         28.5628    0.6271  -11.0174 C.3       8 UNK         0.0235 
     51 CB         28.9489   -0.8372  -10.7464 C.3       8 UNK        -0.2000 
     52 C          29.8121    1.5304  -11.0107 C.2       8 UNK         0.4941 
     53 O          30.6997    1.3154  -11.8376 O.2       8 UNK        -0.5273 
     54 N          29.8887    2.4974  -10.0808 N.am      9 UNK        -0.4262 
     55 CA         30.9414    3.5020   -9.8724 C.3       9 UNK         0.0264 
     56 CB         31.1388    4.3943  -11.1132 C.3       9 UNK        -0.1955 
     57 C          32.2789    2.9300   -9.3750 C.2       9 UNK         0.5031 
     58 O          32.8384    3.4703   -8.4202 O.2       9 UNK        -0.5390 
     59 N          32.7495    1.8344   -9.9854 N.am      10 UNK        -0.4204 
     60 CA         33.9823    1.1153   -9.6389 C.3       10 UNK         0.0237 
     61 CB         34.1942   -0.0337  -10.6378 C.3       10 UNK        -0.1985 
     62 C          34.0128    0.5840   -8.1932 C.2       10 UNK         0.4970 
     63 O          35.0892    0.5217   -7.5980 O.2       10 UNK        -0.4914 
     64 N          32.8335    0.2463   -7.6615 N.am      11 UNK        -0.4285 
     65 CA         32.5887   -0.1213   -6.2609 C.3       11 UNK         0.1007 
     66 C          31.6381    0.8922   -5.5570 C.2       11 UNK         0.5703 
     67 N          31.5302    2.1308   -6.0281 N.am      11 UNK        -0.7361 
     68 O          31.0097    0.5739   -4.5514 O.2       11 UNK        -0.4986 
     69 C69        32.1314   -1.6011   -6.1418 C.3       12 UNK        -0.0947 
     70 S70        33.5377   -2.7428   -6.3868 S.3       12 UNK        -0.2240 
     71 C71        32.7630   -4.3940   -6.2882 C.3       12 UNK         0.0194 
     72 H72        29.4116   -4.8970    1.9852 H         1 UNK         0.0906 
     73 H73        27.8004   -4.3916    2.5004 H         1 UNK         0.0906 
     74 H74        29.2040   -3.3921    2.8831 H         1 UNK         0.0906 
     75 H75        29.3168   -1.6063    1.5864 H         1 UNK         0.3140 
     76 H76        29.3348   -0.1750   -0.0446 H         1 UNK         0.1085 
     77 H77        29.6253   -0.7709   -2.4162 H         1 UNK         0.0836 
     78 H78        29.2094   -2.4206   -2.1029 H         1 UNK         0.0836 
     79 H79        32.6137   -3.9589   -1.1474 H         1 UNK         0.0731 
     80 H80        30.9583   -4.1293   -0.6331 H         1 UNK         0.0731 
     81 H81        33.1437   -3.7321   -3.6426 H         1 UNK         0.1312 
     82 H82        30.2362   -5.3891   -6.3317 H         1 UNK         0.1406 
     83 H83        29.2508   -4.7981   -2.2083 H         1 UNK         0.1631 
     84 H84        27.5602   -5.5113   -3.6525 H         1 UNK         0.0717 
     85 H85        28.1713   -6.6771   -4.8019 H         1 UNK         0.0717 
     86 H86        27.5749   -2.6895   -4.5453 H         1 UNK         0.0934 
     87 H87        28.9053   -2.8700   -5.6667 H         1 UNK         0.0934 
     88 H88        27.2738   -2.4430   -7.5812 H         1 UNK         0.0739 
     89 H89        25.4203   -1.8353   -5.3576 H         1 UNK         0.3093 
     90 H90        22.7960   -0.9469   -7.5474 H         1 UNK         0.0818 
     91 H91        22.6413   -3.4370   -7.7079 H         1 UNK         0.0819 
     92 H92        23.0440   -3.5885   -6.0037 H         1 UNK         0.0819 
     93 H93        21.5368   -2.8128   -6.4952 H         1 UNK         0.0819 
     94 H94        22.8334   -1.4453   -4.7361 H         1 UNK         0.3041 
     95 H95        24.0934    1.7346   -3.7315 H         1 UNK         0.0784 
     96 H96        21.6838    2.1178   -4.2945 H         1 UNK         0.0793 
     97 H97        21.2664    0.5665   -3.5800 H         1 UNK         0.0793 
     98 H98        21.9218    1.8603   -2.5756 H         1 UNK         0.0793 
     99 H99        23.1617   -0.2003   -2.0348 H         1 UNK         0.3024 
    100 H100       24.6571   -1.1929   -0.6620 H         1 UNK         0.1171 
    101 H101       25.1919   -3.5279   -2.5935 H         1 UNK         0.0786 
    102 H102       24.7695   -3.6818   -0.8892 H         1 UNK         0.0786 
    103 H103       23.6032   -3.0282   -2.0266 H         1 UNK         0.0786 
    104 H104       27.0039   -2.6646   -1.0628 H         1 UNK         0.2977 
    105 H105       26.6296    0.0478   -5.0930 H         1 UNK         0.3127 
    106 H106       28.7859    1.7643   -5.7075 H         1 UNK         0.0770 
    107 H107       27.4416    3.5071   -4.6135 H         1 UNK         0.0814 
    108 H108       25.9765    2.5574   -4.7914 H         1 UNK         0.0814 
    109 H109       27.2636    2.0045   -3.7181 H         1 UNK         0.0814 
    110 H110       25.5747    1.4753   -7.2393 H         1 UNK         0.2983 
    111 H111       25.7480    3.5765   -9.0920 H         1 UNK         0.0947 
    112 H112       24.2833    0.8889   -9.2866 H         1 UNK         0.0806 
    113 H113       23.9590    2.2888  -10.3010 H         1 UNK         0.0806 
    114 H114       23.6493    2.3725   -8.5759 H         1 UNK         0.0806 
    115 H115       27.5694    0.6105   -9.1423 H         1 UNK         0.3000 
    116 H116       28.1347    0.6783  -12.0208 H         1 UNK         0.0850 
    117 H117       29.5801   -1.2252  -11.5469 H         1 UNK         0.0810 
    118 H118       28.0698   -1.4794  -10.6876 H         1 UNK         0.0810 
    119 H119       29.5090   -0.9460   -9.8179 H         1 UNK         0.0810 
    120 H120       29.1316    2.5576   -9.4060 H         1 UNK         0.3040 
    121 H121       30.5652    4.1426   -9.0727 H         1 UNK         0.0766 
    122 H122       31.5344    3.8373  -11.9629 H         1 UNK         0.0812 
    123 H123       31.8417    5.2012  -10.9019 H         1 UNK         0.0812 
    124 H124       30.2004    4.8550  -11.4221 H         1 UNK         0.0812 
    125 H125       32.1991    1.4765  -10.7646 H         1 UNK         0.3205 
    126 H126       34.8101    1.8197   -9.7436 H         1 UNK         0.0754 
    127 H127       35.1157   -0.5760  -10.4207 H         1 UNK         0.0769 
    128 H128       34.2714    0.3380  -11.6599 H         1 UNK         0.0769 
    129 H129       33.3753   -0.7537  -10.6036 H         1 UNK         0.0769 
    130 H130       32.0052    0.3498   -8.2284 H         1 UNK         0.2981 
    131 H131       33.5160   -0.0217   -5.6942 H         1 UNK         0.0541 
    132 H132       30.9296    2.7816   -5.5500 H         1 UNK         0.3459 
    133 H133       32.0844    2.4466   -6.8148 H         1 UNK         0.3459 
    134 H134       31.3390   -1.8283   -6.8572 H         1 UNK         0.0612 
    135 H135       31.7175   -1.7965   -5.1522 H         1 UNK         0.0612 
    136 H136       33.5484   -5.1468   -6.2131 H         1 UNK         0.0624 
    137 H137       32.2470   -4.5783   -7.2317 H         1 UNK         0.0624 
@<TRIPOS>BOND
     1    1    2 1    
     2    1   72 1    
     3    1   73 1    
     4    1   74 1    
     5    2    3 2    
     6    2    4 am   BACKBONE|DICT|INTERRES
     7    4    5 1    
     8    4   75 1    
     9    5    6 1    
    10    5   35 1    
    11    5   76 1    
    12    6    7 1    
    13    6   77 1    
    14    6   78 1    
    15    7    8 1    
    16    8    9 1    
    17    8   79 1    
    18    8   80 1    
    19    9   10 ar   
    20    9   14 ar   
    21   10   11 ar   
    22   10   81 1    
    23   11   12 ar   
    24   11   71 1    
    25   12   13 ar   
    26   12   82 1    
    27   13   14 ar   
    28   13   15 1    
    29   14   83 1    
    30   15   16 1    
    31   15   84 1    
    32   15   85 1    
    33   16   17 1    
    34   17   18 1    
    35   17   86 1    
    36   17   87 1    
    37   18   19 1    
    38   18   37 1    
    39   18   88 1    
    40   19   20 am   BACKBONE|DICT|INTERRES
    41   19   89 1    
    42   20   21 2    
    43   20   22 1    
    44   22   23 1    
    45   22   24 1    
    46   22   90 1    
    47   23   91 1    
    48   23   92 1    
    49   23   93 1    
    50   24   25 am   BACKBONE|DICT|INTERRES
    51   24   94 1    
    52   25   26 2    
    53   25   27 1    
    54   27   28 1    
    55   27   29 1    
    56   27   95 1    
    57   28   96 1    
    58   28   97 1    
    59   28   98 1    
    60   29   30 am   BACKBONE|DICT|INTERRES
    61   29   99 1    
    62   30   31 2    
    63   30   32 1    
    64   32   33 1    
    65   32   34 1    
    66   32  100 1    
    67   33  101 1    
    68   33  102 1    
    69   33  103 1    
    70   34   35 am   BACKBONE|DICT|INTERRES
    71   34  104 1    
    72   35   36 2    
    73   37   38 2    
    74   37   39 am   BACKBONE|DICT|INTERRES
    75   39   40 1    
    76   39  105 1    
    77   40   41 1    
    78   40   42 1    
    79   40  106 1    
    80   41  107 1    
    81   41  108 1    
    82   41  109 1    
    83   42   43 2    
    84   42   44 am   BACKBONE|DICT|INTERRES
    85   44   45 1    
    86   44  110 1    
    87   45   46 1    
    88   45   47 1    
    89   45  111 1    
    90   46  112 1    
    91   46  113 1    
    92   46  114 1    
    93   47   48 2    
    94   47   49 am   BACKBONE|DICT|INTERRES
    95   49   50 1    
    96   49  115 1    
    97   50   51 1    
    98   50   52 1    
    99   50  116 1    
   100   51  117 1    
   101   51  118 1    
   102   51  119 1    
   103   52   53 2    
   104   52   54 am   BACKBONE|DICT|INTERRES
   105   54   55 1    
   106   54  120 1    
   107   55   56 1    
   108   55   57 1    
   109   55  121 1    
   110   56  122 1    
   111   56  123 1    
   112   56  124 1    
   113   57   58 2    
   114   57   59 am   BACKBONE|DICT|INTERRES
   115   59   60 1    
   116   59  125 1    
   117   60   61 1    
   118   60   62 1    
   119   60  126 1    
   120   61  127 1    
   121   61  128 1    
   122   61  129 1    
   123   62   63 2    
   124   62   64 am   BACKBONE|DICT|INTERRES
   125   64   65 1    
   126   64  130 1    
   127   65   66 1    
   128   65   69 1    
   129   65  131 1    
   130   66   67 am   BACKBONE|DICT|INTERRES
   131   66   68 2    
   132   67  132 1    
   133   67  133 1    
   134   69   70 1    
   135   69  134 1    
   136   69  135 1    
   137   70   71 1    
   138   71  136 1    
   139   71  137 1    
@<TRIPOS>SUBSTRUCTURE
     1 UNK         1 GROUP             0       ****    0 ROOT    
