@<TRIPOS>MOLECULE
3R137
137   139    1
SMALL
USER_CHARGES


@<TRIPOS>ATOM
      1 CA         26.1999   -0.9414    4.4540 C.3       0 UNK        -0.2020 
      2 C          26.3705   -0.7879    2.9498 C.2       0 UNK         0.4855 
      3 O          25.6615    0.0072    2.3316 O.2       0 UNK        -0.5197 
      4 N          27.3104   -1.5357    2.3576 N.am      1 UNK        -0.4892 
      5 CA         27.5607   -1.5681    0.9128 C.3       1 UNK         0.0835 
      6 C6         28.9913   -2.0823    0.6095 C.3       12 UNK        -0.0855 
      7 S7         29.5828   -1.5899   -1.0479 S.3       12 UNK        -0.2931 
      8 C8         29.7968   -3.2270   -1.8244 C.3       12 UNK         0.0378 
      9 C9         30.1157   -3.1709   -3.3168 C.ar      12 UNK        -0.0802 
     10 C10        31.0028   -2.2227   -3.8404 C.ar      12 UNK        -0.0944 
     11 C11        31.3184   -2.2138   -5.2025 C.ar      12 UNK        -0.0787 
     12 C12        30.7565   -3.1811   -6.0422 C.ar      12 UNK        -0.0862 
     13 C13        29.8729   -4.1385   -5.5354 C.ar      12 UNK        -0.0733 
     14 C14        29.5548   -4.1233   -4.1742 C.ar      12 UNK        -0.0832 
     15 C15        29.3078   -5.2281   -6.4405 C.3       12 UNK         0.0240 
     16 S16        28.2634   -4.5836   -7.7873 S.3       12 UNK        -0.2522 
     17 C17        26.8248   -3.9165   -6.8811 C.3       12 UNK        -0.0967 
     18 CA         26.2268   -2.6633   -7.5700 C.3       5 UNK         0.0660 
     19 N          24.9525   -2.2709   -6.9752 N.am      5 UNK        -0.4015 
     20 C          23.9308   -1.7316   -7.6538 C.2       4 UNK         0.4946 
     21 O          23.8929   -1.6384   -8.8814 O.2       4 UNK        -0.5353 
     22 CA         22.7472   -1.1887   -6.8299 C.3       4 UNK         0.0277 
     23 CB         21.6412   -2.2503   -6.7152 C.3       4 UNK        -0.1981 
     24 N          23.1154   -0.7266   -5.4877 N.am      4 UNK        -0.4209 
     25 C          23.9608    0.2815   -5.2286 C.2       3 UNK         0.4942 
     26 O          24.5194    0.9524   -6.0952 O.2       3 UNK        -0.5208 
     27 CA         24.2851    0.5535   -3.7507 C.3       3 UNK         0.0250 
     28 CB         23.2321    1.4892   -3.1359 C.3       3 UNK        -0.1990 
     29 N          24.4319   -0.6417   -2.9074 N.am      3 UNK        -0.4232 
     30 C          25.1925   -1.7139   -3.1741 C.2       2 UNK         0.4993 
     31 O          25.8029   -1.8846   -4.2311 O.2       2 UNK        -0.5286 
     32 CA         25.3637   -2.7169   -2.0328 C.3       2 UNK         0.0209 
     33 CB         25.8355   -4.1006   -2.5219 C.3       2 UNK        -0.1931 
     34 N          26.3483   -2.1330   -1.1308 N.am      2 UNK        -0.4546 
     35 C          26.4712   -2.3813    0.1753 C.2       1 UNK         0.5154 
     36 O          25.7836   -3.2075    0.7823 O.2       1 UNK        -0.5181 
     37 C          27.1858   -1.4627   -7.5259 C.2       5 UNK         0.5014 
     38 O          27.6887   -1.0499   -8.5714 O.2       5 UNK        -0.5248 
     39 N          27.4138   -0.9225   -6.3201 N.am      6 UNK        -0.4434 
     40 CA         28.4394    0.0763   -6.0191 C.3       6 UNK         0.0363 
     41 CB         28.4311    0.3895   -4.5159 C.3       6 UNK        -0.1936 
     42 C          28.3513    1.3641   -6.8505 C.2       6 UNK         0.5081 
     43 O          29.3913    1.8615   -7.2796 O.2       6 UNK        -0.5248 
     44 N          27.1325    1.8612   -7.1065 N.am      7 UNK        -0.4718 
     45 CA         26.9001    3.0596   -7.9206 C.3       7 UNK         0.0273 
     46 CB         25.4426    3.5185   -7.7573 C.3       7 UNK        -0.1935 
     47 C          27.2380    2.8735   -9.4113 C.2       7 UNK         0.5018 
     48 O          27.5453    3.8614  -10.0797 O.2       7 UNK        -0.5186 
     49 N          27.1737    1.6297   -9.9049 N.am      8 UNK        -0.4240 
     50 CA         27.5223    1.2683  -11.2782 C.3       8 UNK         0.0235 
     51 CB         26.6011    0.1336  -11.7582 C.3       8 UNK        -0.2000 
     52 C          28.9967    0.8544  -11.3842 C.2       8 UNK         0.4941 
     53 O          29.6842    1.2920  -12.3073 O.2       8 UNK        -0.5273 
     54 N          29.4494    0.0092  -10.4488 N.am      9 UNK        -0.4262 
     55 CA         30.7924   -0.5687  -10.4208 C.3       9 UNK         0.0264 
     56 CB         30.7893   -1.7828   -9.4819 C.3       9 UNK        -0.1955 
     57 C          31.8900    0.4210  -10.0026 C.2       9 UNK         0.5031 
     58 O          33.0222    0.2773  -10.4671 O.2       9 UNK        -0.5390 
     59 N          31.5597    1.3751   -9.1185 N.am      10 UNK        -0.4204 
     60 CA         32.4123    2.4159   -8.5238 C.3       10 UNK         0.0237 
     61 CB         32.9924    3.3577   -9.5973 C.3       10 UNK        -0.1985 
     62 C          33.5162    1.8958   -7.5824 C.2       10 UNK         0.4970 
     63 O          33.6963    2.4711   -6.5083 O.2       10 UNK        -0.4914 
     64 N          34.2233    0.8343   -7.9902 N.am      11 UNK        -0.4285 
     65 CA         35.3847    0.2327   -7.3143 C.3       11 UNK         0.1007 
     66 C          36.6010    1.2082   -7.2142 C.2       11 UNK         0.5703 
     67 N          37.5798    0.9321   -6.3618 N.am      11 UNK        -0.7361 
     68 O          36.7020    2.1915   -7.9471 O.2       11 UNK        -0.4986 
     69 C69        35.0065   -0.4550   -5.9672 C.3       12 UNK        -0.0947 
     70 S70        33.8826   -1.8775   -6.1777 S.3       12 UNK        -0.2240 
     71 C71        32.2660   -1.1587   -5.7578 C.3       12 UNK         0.0194 
     72 H72        26.3617    0.0155    4.9498 H         1 UNK         0.0906 
     73 H73        25.1893   -1.2779    4.6840 H         1 UNK         0.0906 
     74 H74        26.9010   -1.6628    4.8734 H         1 UNK         0.0906 
     75 H75        27.8353   -2.1993    2.9098 H         1 UNK         0.3140 
     76 H76        27.4924   -0.5370    0.5566 H         1 UNK         0.1085 
     77 H77        29.6959   -1.6546    1.3250 H         1 UNK         0.0836 
     78 H78        29.0584   -3.1640    0.7430 H         1 UNK         0.0836 
     79 H79        28.8879   -3.8076   -1.6590 H         1 UNK         0.0731 
     80 H80        30.6025   -3.7581   -1.3159 H         1 UNK         0.0731 
     81 H81        31.4529   -1.4902   -3.1848 H         1 UNK         0.1312 
     82 H82        31.0208   -3.2053   -7.0887 H         1 UNK         0.1406 
     83 H83        28.8901   -4.8772   -3.7754 H         1 UNK         0.1631 
     84 H84        28.7308   -5.9547   -5.8664 H         1 UNK         0.0717 
     85 H85        30.1387   -5.7807   -6.8809 H         1 UNK         0.0717 
     86 H86        26.0730   -4.7058   -6.8348 H         1 UNK         0.0934 
     87 H87        27.0965   -3.7035   -5.8458 H         1 UNK         0.0934 
     88 H88        26.0640   -2.9140   -8.6208 H         1 UNK         0.0739 
     89 H89        24.9300   -2.2473   -5.9610 H         1 UNK         0.3093 
     90 H90        22.3440   -0.3306   -7.3721 H         1 UNK         0.0818 
     91 H91        20.7567   -1.8514   -6.2183 H         1 UNK         0.0819 
     92 H92        21.3275   -2.5945   -7.7019 H         1 UNK         0.0819 
     93 H93        21.9764   -3.1253   -6.1568 H         1 UNK         0.0819 
     94 H94        22.7130   -1.2235   -4.7063 H         1 UNK         0.3041 
     95 H95        25.2431    1.0744   -3.7279 H         1 UNK         0.0784 
     96 H96        23.1159    2.3940   -3.7348 H         1 UNK         0.0793 
     97 H97        22.2534    1.0118   -3.0732 H         1 UNK         0.0793 
     98 H98        23.5175    1.8045   -2.1321 H         1 UNK         0.0793 
     99 H99        23.9915   -0.5924   -1.9995 H         1 UNK         0.3024 
    100 H100       24.4062   -2.8301   -1.5189 H         1 UNK         0.1171 
    101 H101       25.1162   -4.5329   -3.2183 H         1 UNK         0.0786 
    102 H102       26.7923   -4.0393   -3.0390 H         1 UNK         0.0786 
    103 H103       25.9469   -4.7998   -1.6932 H         1 UNK         0.0786 
    104 H104       26.9763   -1.4620   -1.5553 H         1 UNK         0.2977 
    105 H105       26.9098   -1.3019   -5.5198 H         1 UNK         0.3127 
    106 H106       29.3967   -0.3877   -6.2578 H         1 UNK         0.0770 
    107 H107       27.5026    0.8692   -4.2096 H         1 UNK         0.0814 
    108 H108       29.2495    1.0612   -4.2537 H         1 UNK         0.0814 
    109 H109       28.5532   -0.5162   -3.9215 H         1 UNK         0.0814 
    110 H110       26.3094    1.3957   -6.7307 H         1 UNK         0.2983 
    111 H111       27.5490    3.8515   -7.5399 H         1 UNK         0.0947 
    112 H112       25.2591    4.4422   -8.3078 H         1 UNK         0.0806 
    113 H113       25.2010    3.7106   -6.7117 H         1 UNK         0.0806 
    114 H114       24.7416    2.7711   -8.1311 H         1 UNK         0.0806 
    115 H115       26.9700    0.8672   -9.2695 H         1 UNK         0.3000 
    116 H116       27.3661    2.1255  -11.9370 H         1 UNK         0.0850 
    117 H117       26.8394   -0.1548  -12.7828 H         1 UNK         0.0810 
    118 H118       25.5554    0.4415  -11.7430 H         1 UNK         0.0810 
    119 H119       26.6933   -0.7588  -11.1377 H         1 UNK         0.0810 
    120 H120       28.7969   -0.3305   -9.7415 H         1 UNK         0.3040 
    121 H121       31.0335   -0.9178  -11.4272 H         1 UNK         0.0766 
    122 H122       31.7838   -2.2234   -9.3965 H         1 UNK         0.0812 
    123 H123       30.1160   -2.5614   -9.8412 H         1 UNK         0.0812 
    124 H124       30.4627   -1.4999   -8.4817 H         1 UNK         0.0812 
    125 H125       30.6134    1.3715   -8.7461 H         1 UNK         0.3205 
    126 H126       31.7419    3.0142   -7.9049 H         1 UNK         0.0754 
    127 H127       33.5296    4.1871   -9.1354 H         1 UNK         0.0769 
    128 H128       32.2034    3.7856  -10.2160 H         1 UNK         0.0769 
    129 H129       33.6953    2.8462  -10.2555 H         1 UNK         0.0769 
    130 H130       34.0050    0.4692   -8.9139 H         1 UNK         0.2981 
    131 H131       35.7283   -0.5482   -7.9933 H         1 UNK         0.0541 
    132 H132       38.3745    1.5505   -6.3146 H         1 UNK         0.3459 
    133 H133       37.5412    0.1195   -5.7672 H         1 UNK         0.3459 
    134 H134       34.5876    0.2635   -5.2619 H         1 UNK         0.0612 
    135 H135       35.8927   -0.8615   -5.4794 H         1 UNK         0.0612 
    136 H136       31.8369   -0.7010   -6.6494 H         1 UNK         0.0624 
    137 H137       32.3923   -0.3533   -5.0331 H         1 UNK         0.0624 
@<TRIPOS>BOND
     1    1    2 1    
     2    1   72 1    
     3    1   73 1    
     4    1   74 1    
     5    2    3 2    
     6    2    4 am   BACKBONE|DICT|INTERRES
     7    4    5 1    
     8    4   75 1    
     9    5    6 1    
    10    5   35 1    
    11    5   76 1    
    12    6    7 1    
    13    6   77 1    
    14    6   78 1    
    15    7    8 1    
    16    8    9 1    
    17    8   79 1    
    18    8   80 1    
    19    9   10 ar   
    20    9   14 ar   
    21   10   11 ar   
    22   10   81 1    
    23   11   12 ar   
    24   11   71 1    
    25   12   13 ar   
    26   12   82 1    
    27   13   14 ar   
    28   13   15 1    
    29   14   83 1    
    30   15   16 1    
    31   15   84 1    
    32   15   85 1    
    33   16   17 1    
    34   17   18 1    
    35   17   86 1    
    36   17   87 1    
    37   18   19 1    
    38   18   37 1    
    39   18   88 1    
    40   19   20 am   BACKBONE|DICT|INTERRES
    41   19   89 1    
    42   20   21 2    
    43   20   22 1    
    44   22   23 1    
    45   22   24 1    
    46   22   90 1    
    47   23   91 1    
    48   23   92 1    
    49   23   93 1    
    50   24   25 am   BACKBONE|DICT|INTERRES
    51   24   94 1    
    52   25   26 2    
    53   25   27 1    
    54   27   28 1    
    55   27   29 1    
    56   27   95 1    
    57   28   96 1    
    58   28   97 1    
    59   28   98 1    
    60   29   30 am   BACKBONE|DICT|INTERRES
    61   29   99 1    
    62   30   31 2    
    63   30   32 1    
    64   32   33 1    
    65   32   34 1    
    66   32  100 1    
    67   33  101 1    
    68   33  102 1    
    69   33  103 1    
    70   34   35 am   BACKBONE|DICT|INTERRES
    71   34  104 1    
    72   35   36 2    
    73   37   38 2    
    74   37   39 am   BACKBONE|DICT|INTERRES
    75   39   40 1    
    76   39  105 1    
    77   40   41 1    
    78   40   42 1    
    79   40  106 1    
    80   41  107 1    
    81   41  108 1    
    82   41  109 1    
    83   42   43 2    
    84   42   44 am   BACKBONE|DICT|INTERRES
    85   44   45 1    
    86   44  110 1    
    87   45   46 1    
    88   45   47 1    
    89   45  111 1    
    90   46  112 1    
    91   46  113 1    
    92   46  114 1    
    93   47   48 2    
    94   47   49 am   BACKBONE|DICT|INTERRES
    95   49   50 1    
    96   49  115 1    
    97   50   51 1    
    98   50   52 1    
    99   50  116 1    
   100   51  117 1    
   101   51  118 1    
   102   51  119 1    
   103   52   53 2    
   104   52   54 am   BACKBONE|DICT|INTERRES
   105   54   55 1    
   106   54  120 1    
   107   55   56 1    
   108   55   57 1    
   109   55  121 1    
   110   56  122 1    
   111   56  123 1    
   112   56  124 1    
   113   57   58 2    
   114   57   59 am   BACKBONE|DICT|INTERRES
   115   59   60 1    
   116   59  125 1    
   117   60   61 1    
   118   60   62 1    
   119   60  126 1    
   120   61  127 1    
   121   61  128 1    
   122   61  129 1    
   123   62   63 2    
   124   62   64 am   BACKBONE|DICT|INTERRES
   125   64   65 1    
   126   64  130 1    
   127   65   66 1    
   128   65   69 1    
   129   65  131 1    
   130   66   67 am   BACKBONE|DICT|INTERRES
   131   66   68 2    
   132   67  132 1    
   133   67  133 1    
   134   69   70 1    
   135   69  134 1    
   136   69  135 1    
   137   70   71 1    
   138   71  136 1    
   139   71  137 1    
@<TRIPOS>SUBSTRUCTURE
     1 UNK         1 GROUP             0       ****    0 ROOT    
