@<TRIPOS>MOLECULE
3R137
137   139    1
SMALL
USER_CHARGES


@<TRIPOS>ATOM
      1 CA         25.1920    1.3414    2.7887 C.3       0 UNK        -0.2020 
      2 C          25.8275    0.1905    2.0224 C.2       0 UNK         0.4855 
      3 O          25.8229   -0.9394    2.5118 O.2       0 UNK        -0.5197 
      4 N          26.3747    0.4781    0.8320 N.am      1 UNK        -0.4892 
      5 CA         26.9968   -0.4683   -0.1059 C.3       1 UNK         0.0835 
      6 C6         28.2380   -1.1844    0.5153 C.3       12 UNK        -0.0855 
      7 S7         29.3582   -2.0846   -0.6185 S.3       12 UNK        -0.2931 
      8 C8         29.9036   -0.8183   -1.8118 C.3       12 UNK         0.0378 
      9 C9         30.7188   -1.4405   -2.9374 C.ar      12 UNK        -0.0802 
     10 C10        32.0181   -0.9962   -3.1975 C.ar      12 UNK        -0.0944 
     11 C11        32.7790   -1.5852   -4.2117 C.ar      12 UNK        -0.0787 
     12 C12        32.2314   -2.6255   -4.9703 C.ar      12 UNK        -0.0862 
     13 C13        30.9345   -3.0827   -4.7174 C.ar      12 UNK        -0.0733 
     14 C14        30.1781   -2.4724   -3.7136 C.ar      12 UNK        -0.0832 
     15 C15        30.3845   -4.2825   -5.4775 C.3       12 UNK         0.0240 
     16 S16        29.6259   -3.8257   -7.0653 S.3       12 UNK        -0.2522 
     17 C17        27.9338   -3.3571   -6.5736 C.3       12 UNK        -0.0967 
     18 CA         27.4211   -2.1081   -7.3318 C.3       5 UNK         0.0660 
     19 N          25.9555   -2.0580   -7.3586 N.am      5 UNK        -0.4015 
     20 C          25.2432   -1.2170   -8.1244 C.2       4 UNK         0.4946 
     21 O          25.7466   -0.4130   -8.9081 O.2       4 UNK        -0.5353 
     22 CA         23.7134   -1.2376   -7.9696 C.3       4 UNK         0.0277 
     23 CB         23.0907   -2.2465   -8.9473 C.3       4 UNK        -0.1981 
     24 N          23.2499   -1.5252   -6.6106 N.am      4 UNK        -0.4209 
     25 C          23.5552   -0.8179   -5.5132 C.2       3 UNK         0.4942 
     26 O          24.2935    0.1675   -5.5189 O.2       3 UNK        -0.5208 
     27 CA         22.9585   -1.3025   -4.1780 C.3       3 UNK         0.0250 
     28 CB         21.7918   -2.3025   -4.3445 C.3       3 UNK        -0.1990 
     29 N          23.9572   -1.8689   -3.2632 N.am      3 UNK        -0.4232 
     30 C          24.8992   -2.7869   -3.5227 C.2       2 UNK         0.4993 
     31 O          25.1886   -3.1817   -4.6556 O.2       2 UNK        -0.5286 
     32 CA         25.6288   -3.3680   -2.2934 C.3       2 UNK         0.0209 
     33 CB         26.5406   -4.5551   -2.6581 C.3       2 UNK        -0.1931 
     34 N          26.4187   -2.3741   -1.5607 N.am      2 UNK        -0.4546 
     35 C          25.9479   -1.4029   -0.7687 C.2       1 UNK         0.5154 
     36 O          24.7396   -1.2071   -0.6051 O.2       1 UNK        -0.5181 
     37 C          28.0170   -0.8080   -6.7582 C.2       5 UNK         0.5014 
     38 O          28.9993   -0.2953   -7.2980 O.2       5 UNK        -0.5248 
     39 N          27.3741   -0.2831   -5.7050 N.am      6 UNK        -0.4434 
     40 CA         27.7163    0.9810   -5.0586 C.3       6 UNK         0.0363 
     41 CB         26.9852    1.0720   -3.7094 C.3       6 UNK        -0.1936 
     42 C          27.3597    2.1830   -5.9442 C.2       6 UNK         0.5081 
     43 O          28.1686    3.1011   -6.0680 O.2       6 UNK        -0.5248 
     44 N          26.1649    2.1453   -6.5530 N.am      7 UNK        -0.4718 
     45 CA         25.6444    3.1854   -7.4446 C.3       7 UNK         0.0273 
     46 CB         24.1747    2.8899   -7.7811 C.3       7 UNK        -0.1935 
     47 C          26.4749    3.3493   -8.7276 C.2       7 UNK         0.5018 
     48 O          26.7551    4.4813   -9.1238 O.2       7 UNK        -0.5186 
     49 N          26.8741    2.2243   -9.3376 N.am      8 UNK        -0.4240 
     50 CA         27.7702    2.1937  -10.4963 C.3       8 UNK         0.0235 
     51 CB         27.6392    0.8318  -11.1983 C.3       8 UNK        -0.2000 
     52 C          29.2424    2.4545  -10.1312 C.2       8 UNK         0.4941 
     53 O          30.0171    2.8091  -11.0206 O.2       8 UNK        -0.5273 
     54 N          29.6027    2.2410   -8.8549 N.am      9 UNK        -0.4262 
     55 CA         30.9606    2.2202   -8.2972 C.3       9 UNK         0.0264 
     56 CB         31.5928    3.6273   -8.3160 C.3       9 UNK        -0.1955 
     57 C          31.8286    1.1508   -8.9865 C.2       9 UNK         0.5031 
     58 O          32.9597    1.4273   -9.3945 O.2       9 UNK        -0.5390 
     59 N          31.2641   -0.0555   -9.1342 N.am      10 UNK        -0.4204 
     60 CA         31.8302   -1.1737   -9.8941 C.3       10 UNK         0.0237 
     61 CB         30.6834   -2.0744  -10.3875 C.3       10 UNK        -0.1985 
     62 C          32.9110   -1.9347   -9.1018 C.2       10 UNK         0.4970 
     63 O          32.8298   -3.1538   -8.9440 O.2       10 UNK        -0.4914 
     64 N          33.9065   -1.1881   -8.6163 N.am      11 UNK        -0.4285 
     65 CA         35.0324   -1.6776   -7.8095 C.3       11 UNK         0.1007 
     66 C          36.1837   -2.3222   -8.6339 C.2       11 UNK         0.5703 
     67 N          36.1686   -2.2674   -9.9608 N.am      11 UNK        -0.7361 
     68 O          37.1050   -2.8947   -8.0567 O.2       11 UNK        -0.4986 
     69 C69        35.5662   -0.5734   -6.8587 C.3       12 UNK        -0.0947 
     70 S70        34.2645    0.1244   -5.7862 S.3       12 UNK        -0.2240 
     71 C71        34.2045   -1.1207   -4.4628 C.3       12 UNK         0.0194 
     72 H72        25.6729    1.4566    3.7598 H         1 UNK         0.0906 
     73 H73        24.1336    1.1416    2.9543 H         1 UNK         0.0906 
     74 H74        25.2784    2.2872    2.2540 H         1 UNK         0.0906 
     75 H75        26.3064    1.4274    0.4910 H         1 UNK         0.3140 
     76 H76        27.3560    0.1745   -0.9056 H         1 UNK         0.1085 
     77 H77        27.9152   -1.8961    1.2767 H         1 UNK         0.0836 
     78 H78        28.8485   -0.4512    1.0452 H         1 UNK         0.0836 
     79 H79        29.0501   -0.3158   -2.2582 H         1 UNK         0.0731 
     80 H80        30.4777   -0.0553   -1.2836 H         1 UNK         0.0731 
     81 H81        32.4447   -0.1990   -2.6040 H         1 UNK         0.1312 
     82 H82        32.8201   -3.0941   -5.7469 H         1 UNK         0.1406 
     83 H83        29.1794   -2.8257   -3.5060 H         1 UNK         0.1631 
     84 H84        29.6642   -4.8302   -4.8677 H         1 UNK         0.0717 
     85 H85        31.1969   -4.9830   -5.6771 H         1 UNK         0.0717 
     86 H86        27.2969   -4.2154   -6.7943 H         1 UNK         0.0934 
     87 H87        27.8695   -3.2162   -5.4942 H         1 UNK         0.0934 
     88 H88        27.7459   -2.1813   -8.3724 H         1 UNK         0.0739 
     89 H89        25.4705   -2.6379   -6.6813 H         1 UNK         0.3093 
     90 H90        23.3457   -0.2443   -8.2310 H         1 UNK         0.0818 
     91 H91        23.4030   -2.0394   -9.9721 H         1 UNK         0.0819 
     92 H92        23.3880   -3.2703   -8.7168 H         1 UNK         0.0819 
     93 H93        22.0017   -2.1992   -8.9281 H         1 UNK         0.0819 
     94 H94        22.6552   -2.3332   -6.4977 H         1 UNK         0.3041 
     95 H95        22.5620   -0.4116   -3.6886 H         1 UNK         0.0784 
     96 H96        21.0132   -1.9025   -4.9959 H         1 UNK         0.0793 
     97 H97        22.1212   -3.2569   -4.7573 H         1 UNK         0.0793 
     98 H98        21.3207   -2.5108   -3.3837 H         1 UNK         0.0793 
     99 H99        23.8955   -1.5554   -2.2973 H         1 UNK         0.3024 
    100 H100       24.8552   -3.7471   -1.6213 H         1 UNK         0.1171 
    101 H101       27.3425   -4.2615   -3.3339 H         1 UNK         0.0786 
    102 H102       26.9944   -4.9957   -1.7700 H         1 UNK         0.0786 
    103 H103       25.9730   -5.3438   -3.1539 H         1 UNK         0.0786 
    104 H104       27.4249   -2.4746   -1.6125 H         1 UNK         0.2977 
    105 H105       26.5241   -0.7317   -5.3917 H         1 UNK         0.3127 
    106 H106       28.7935    0.9847   -4.8760 H         1 UNK         0.0770 
    107 H107       27.4421    1.8293   -3.0716 H         1 UNK         0.0814 
    108 H108       25.9341    1.3393   -3.8249 H         1 UNK         0.0814 
    109 H109       27.0154    0.1216   -3.1824 H         1 UNK         0.0814 
    110 H110       25.5426    1.3689   -6.3401 H         1 UNK         0.2983 
    111 H111       25.6858    4.1322   -6.9017 H         1 UNK         0.0947 
    112 H112       24.0717    1.9715   -8.3582 H         1 UNK         0.0806 
    113 H113       23.7421    3.6965   -8.3744 H         1 UNK         0.0806 
    114 H114       23.5711    2.7896   -6.8787 H         1 UNK         0.0806 
    115 H115       26.5448    1.3253   -8.9909 H         1 UNK         0.3000 
    116 H116       27.4602    2.9717  -11.1975 H         1 UNK         0.0850 
    117 H117       28.2652    0.7881  -12.0905 H         1 UNK         0.0810 
    118 H118       26.6122    0.6440  -11.5121 H         1 UNK         0.0810 
    119 H119       27.9436    0.0128  -10.5451 H         1 UNK         0.0810 
    120 H120       28.8799    1.9383   -8.2150 H         1 UNK         0.3040 
    121 H121       30.8618    1.9138   -7.2544 H         1 UNK         0.0766 
    122 H122       31.7643    3.9832   -9.3322 H         1 UNK         0.0812 
    123 H123       32.5565    3.6263   -7.8053 H         1 UNK         0.0812 
    124 H124       30.9564    4.3521   -7.8082 H         1 UNK         0.0812 
    125 H125       30.3777   -0.2199   -8.6612 H         1 UNK         0.3205 
    126 H126       32.3241   -0.7704  -10.7807 H         1 UNK         0.0754 
    127 H127       31.0639   -2.9189  -10.9636 H         1 UNK         0.0769 
    128 H128       30.0012   -1.5241  -11.0356 H         1 UNK         0.0769 
    129 H129       30.1026   -2.4767   -9.5592 H         1 UNK         0.0769 
    130 H130       33.8776   -0.1889   -8.7964 H         1 UNK         0.2981 
    131 H131       34.6534   -2.4842   -7.1804 H         1 UNK         0.0541 
    132 H132       35.4181   -1.8011  -10.4440 H         1 UNK         0.3459 
    133 H133       36.9185   -2.6942  -10.4816 H         1 UNK         0.3459 
    134 H134       35.9956    0.2458   -7.4382 H         1 UNK         0.0612 
    135 H135       36.3726   -0.9528   -6.2282 H         1 UNK         0.0612 
    136 H136       34.8261   -1.9814   -4.7134 H         1 UNK         0.0624 
    137 H137       34.6336   -0.6926   -3.5557 H         1 UNK         0.0624 
@<TRIPOS>BOND
     1    1    2 1    
     2    1   72 1    
     3    1   73 1    
     4    1   74 1    
     5    2    3 2    
     6    2    4 am   BACKBONE|DICT|INTERRES
     7    4    5 1    
     8    4   75 1    
     9    5    6 1    
    10    5   35 1    
    11    5   76 1    
    12    6    7 1    
    13    6   77 1    
    14    6   78 1    
    15    7    8 1    
    16    8    9 1    
    17    8   79 1    
    18    8   80 1    
    19    9   10 ar   
    20    9   14 ar   
    21   10   11 ar   
    22   10   81 1    
    23   11   12 ar   
    24   11   71 1    
    25   12   13 ar   
    26   12   82 1    
    27   13   14 ar   
    28   13   15 1    
    29   14   83 1    
    30   15   16 1    
    31   15   84 1    
    32   15   85 1    
    33   16   17 1    
    34   17   18 1    
    35   17   86 1    
    36   17   87 1    
    37   18   19 1    
    38   18   37 1    
    39   18   88 1    
    40   19   20 am   BACKBONE|DICT|INTERRES
    41   19   89 1    
    42   20   21 2    
    43   20   22 1    
    44   22   23 1    
    45   22   24 1    
    46   22   90 1    
    47   23   91 1    
    48   23   92 1    
    49   23   93 1    
    50   24   25 am   BACKBONE|DICT|INTERRES
    51   24   94 1    
    52   25   26 2    
    53   25   27 1    
    54   27   28 1    
    55   27   29 1    
    56   27   95 1    
    57   28   96 1    
    58   28   97 1    
    59   28   98 1    
    60   29   30 am   BACKBONE|DICT|INTERRES
    61   29   99 1    
    62   30   31 2    
    63   30   32 1    
    64   32   33 1    
    65   32   34 1    
    66   32  100 1    
    67   33  101 1    
    68   33  102 1    
    69   33  103 1    
    70   34   35 am   BACKBONE|DICT|INTERRES
    71   34  104 1    
    72   35   36 2    
    73   37   38 2    
    74   37   39 am   BACKBONE|DICT|INTERRES
    75   39   40 1    
    76   39  105 1    
    77   40   41 1    
    78   40   42 1    
    79   40  106 1    
    80   41  107 1    
    81   41  108 1    
    82   41  109 1    
    83   42   43 2    
    84   42   44 am   BACKBONE|DICT|INTERRES
    85   44   45 1    
    86   44  110 1    
    87   45   46 1    
    88   45   47 1    
    89   45  111 1    
    90   46  112 1    
    91   46  113 1    
    92   46  114 1    
    93   47   48 2    
    94   47   49 am   BACKBONE|DICT|INTERRES
    95   49   50 1    
    96   49  115 1    
    97   50   51 1    
    98   50   52 1    
    99   50  116 1    
   100   51  117 1    
   101   51  118 1    
   102   51  119 1    
   103   52   53 2    
   104   52   54 am   BACKBONE|DICT|INTERRES
   105   54   55 1    
   106   54  120 1    
   107   55   56 1    
   108   55   57 1    
   109   55  121 1    
   110   56  122 1    
   111   56  123 1    
   112   56  124 1    
   113   57   58 2    
   114   57   59 am   BACKBONE|DICT|INTERRES
   115   59   60 1    
   116   59  125 1    
   117   60   61 1    
   118   60   62 1    
   119   60  126 1    
   120   61  127 1    
   121   61  128 1    
   122   61  129 1    
   123   62   63 2    
   124   62   64 am   BACKBONE|DICT|INTERRES
   125   64   65 1    
   126   64  130 1    
   127   65   66 1    
   128   65   69 1    
   129   65  131 1    
   130   66   67 am   BACKBONE|DICT|INTERRES
   131   66   68 2    
   132   67  132 1    
   133   67  133 1    
   134   69   70 1    
   135   69  134 1    
   136   69  135 1    
   137   70   71 1    
   138   71  136 1    
   139   71  137 1    
@<TRIPOS>SUBSTRUCTURE
     1 UNK         1 GROUP             0       ****    0 ROOT    
