@<TRIPOS>MOLECULE
3R137
137   139    1
SMALL
USER_CHARGES


@<TRIPOS>ATOM
      1 CA         29.0947    0.4114    2.3147 C.3       0 UNK        -0.2020 
      2 C          28.5700   -0.8445    1.6335 C.2       0 UNK         0.4855 
      3 O          27.8716   -1.6313    2.2739 O.2       0 UNK        -0.5197 
      4 N          28.9121   -1.0256    0.3491 N.am      1 UNK        -0.4892 
      5 CA         28.5167   -2.1322   -0.5408 C.3       1 UNK         0.0835 
      6 C6         28.8956   -3.5445   -0.0030 C.3       12 UNK        -0.0855 
      7 S7         30.6730   -3.6932    0.3911 S.3       12 UNK        -0.2931 
      8 C8         31.2915   -4.6974   -0.9991 C.3       12 UNK         0.0378 
      9 C9         31.1009   -4.0248   -2.3542 C.ar      12 UNK        -0.0802 
     10 C10        31.6180   -2.7475   -2.5915 C.ar      12 UNK        -0.0944 
     11 C11        31.4690   -2.1444   -3.8422 C.ar      12 UNK        -0.0787 
     12 C12        30.8093   -2.8319   -4.8636 C.ar      12 UNK        -0.0862 
     13 C13        30.2841   -4.1120   -4.6462 C.ar      12 UNK        -0.0733 
     14 C14        30.4342   -4.6972   -3.3843 C.ar      12 UNK        -0.0832 
     15 C15        29.5901   -4.9156   -5.7497 C.3       12 UNK         0.0240 
     16 S16        28.9723   -3.9474   -7.1706 S.3       12 UNK        -0.2522 
     17 C17        27.5945   -3.0474   -6.3985 C.3       12 UNK        -0.0967 
     18 CA         26.9936   -1.9569   -7.3226 C.3       5 UNK         0.0660 
     19 N          25.5541   -1.8205   -7.0934 N.am      5 UNK        -0.4015 
     20 C          24.6923   -1.2070   -7.9141 C.2       4 UNK         0.4946 
     21 O          25.0101   -0.6969   -8.9871 O.2       4 UNK        -0.5353 
     22 CA         23.2297   -1.1294   -7.4422 C.3       4 UNK         0.0277 
     23 CB         22.4580   -2.3880   -7.8694 C.3       4 UNK        -0.1981 
     24 N          23.1063   -0.9450   -5.9927 N.am      4 UNK        -0.4209 
     25 C          23.4892    0.1639   -5.3440 C.2       3 UNK         0.4942 
     26 O          23.9547    1.1554   -5.9018 O.2       3 UNK        -0.5208 
     27 CA         23.3832    0.1502   -3.8117 C.3       3 UNK         0.0250 
     28 CB         21.9550    0.5020   -3.3655 C.3       3 UNK        -0.1990 
     29 N          23.8003   -1.1112   -3.1887 N.am      3 UNK        -0.4232 
     30 C          25.0082   -1.6764   -3.3244 C.2       2 UNK         0.4993 
     31 O          25.8809   -1.2681   -4.0953 O.2       2 UNK        -0.5286 
     32 CA         25.2800   -2.9302   -2.4780 C.3       2 UNK         0.0209 
     33 CB         25.1075   -4.2040   -3.3204 C.3       2 UNK        -0.1931 
     34 N          26.6300   -2.9050   -1.9094 N.am      2 UNK        -0.4546 
     35 C          27.0288   -2.0500   -0.9565 C.2       1 UNK         0.5154 
     36 O          26.2699   -1.2257   -0.4377 O.2       1 UNK        -0.5181 
     37 C          27.7043   -0.5946   -7.1764 C.2       5 UNK         0.5014 
     38 O          28.5399   -0.2386   -8.0112 O.2       5 UNK        -0.5248 
     39 N          27.3108    0.1684   -6.1456 N.am      6 UNK        -0.4434 
     40 CA         27.7347    1.5500   -5.9204 C.3       6 UNK         0.0363 
     41 CB         27.2355    2.0268   -4.5476 C.3       6 UNK        -0.1936 
     42 C          27.2717    2.4979   -7.0412 C.2       6 UNK         0.5081 
     43 O          28.0820    3.2809   -7.5350 O.2       6 UNK        -0.5248 
     44 N          26.0016    2.3865   -7.4604 N.am      7 UNK        -0.4718 
     45 CA         25.4146    3.1532   -8.5677 C.3       7 UNK         0.0273 
     46 CB         23.9011    2.8979   -8.6350 C.3       7 UNK        -0.1935 
     47 C          26.0688    2.8642   -9.9301 C.2       7 UNK         0.5018 
     48 O          26.1968    3.7797  -10.7434 O.2       7 UNK        -0.5186 
     49 N          26.5092    1.6155  -10.1388 N.am      8 UNK        -0.4240 
     50 CA         27.3055    1.1869  -11.2926 C.3       8 UNK         0.0235 
     51 CB         27.2560   -0.3475  -11.3944 C.3       8 UNK        -0.2000 
     52 C          28.7670    1.6805  -11.2607 C.2       8 UNK         0.4941 
     53 O          29.4738    1.4864  -12.2508 O.2       8 UNK        -0.5273 
     54 N          29.1974    2.2934  -10.1455 N.am      9 UNK        -0.4262 
     55 CA         30.5407    2.8141   -9.8704 C.3       9 UNK         0.0264 
     56 CB         30.8900    3.9835  -10.8163 C.3       9 UNK        -0.1955 
     57 C          31.6169    1.7131   -9.8393 C.2       9 UNK         0.5031 
     58 O          32.7475    1.9439  -10.2761 O.2       9 UNK        -0.5390 
     59 N          31.2517    0.5348   -9.3165 N.am      10 UNK        -0.4204 
     60 CA         32.1645   -0.5871   -9.1010 C.3       10 UNK         0.0237 
     61 CB         31.3321   -1.8694   -8.9551 C.3       10 UNK        -0.1985 
     62 C          33.0606   -0.3664   -7.8678 C.2       10 UNK         0.4970 
     63 O          32.8340    0.5636   -7.0924 O.2       10 UNK        -0.4914 
     64 N          34.0592   -1.2443   -7.7230 N.am      11 UNK        -0.4285 
     65 CA         35.0212   -1.3404   -6.6104 C.3       11 UNK         0.1007 
     66 C          36.0208   -0.1543   -6.4383 C.2       11 UNK         0.5703 
     67 N          36.0073    0.8611   -7.2932 N.am      11 UNK        -0.7361 
     68 O          36.8679   -0.1849   -5.5484 O.2       11 UNK        -0.4986 
     69 C69        34.3768   -1.8781   -5.2918 C.3       12 UNK        -0.0947 
     70 S70        33.8293   -0.6524   -4.0440 S.3       12 UNK        -0.2240 
     71 C71        32.0084   -0.7447   -4.0969 C.3       12 UNK         0.0194 
     72 H72        29.7016    0.1431    3.1791 H         1 UNK         0.0906 
     73 H73        28.2634    1.0258    2.6594 H         1 UNK         0.0906 
     74 H74        29.7076    1.0154    1.6457 H         1 UNK         0.0906 
     75 H75        29.4740   -0.3151   -0.0982 H         1 UNK         0.3140 
     76 H76        29.0785   -1.9709   -1.4621 H         1 UNK         0.1085 
     77 H77        28.6361   -4.3209   -0.7242 H         1 UNK         0.0836 
     78 H78        28.3261   -3.7828    0.8963 H         1 UNK         0.0836 
     79 H79        32.3555   -4.8848   -0.8491 H         1 UNK         0.0731 
     80 H80        30.8027   -5.6727   -0.9729 H         1 UNK         0.0731 
     81 H81        32.1385   -2.2221   -1.8022 H         1 UNK         0.1312 
     82 H82        30.7172   -2.3609   -5.8304 H         1 UNK         0.1406 
     83 H83        30.0459   -5.6919   -3.2100 H         1 UNK         0.1631 
     84 H84        28.7549   -5.4774   -5.3283 H         1 UNK         0.0717 
     85 H85        30.2985   -5.6540   -6.1269 H         1 UNK         0.0717 
     86 H86        26.8412   -3.8035   -6.1754 H         1 UNK         0.0934 
     87 H87        27.8996   -2.6393   -5.4324 H         1 UNK         0.0934 
     88 H88        27.1135   -2.2740   -8.3612 H         1 UNK         0.0739 
     89 H89        25.2152   -2.1379   -6.1972 H         1 UNK         0.3093 
     90 H90        22.7709   -0.2675   -7.9312 H         1 UNK         0.0818 
     91 H91        22.5201   -2.5342   -8.9489 H         1 UNK         0.0819 
     92 H92        22.8523   -3.2879   -7.3958 H         1 UNK         0.0819 
     93 H93        21.4005   -2.3101   -7.6162 H         1 UNK         0.0819 
     94 H94        22.7245   -1.7112   -5.4572 H         1 UNK         0.3041 
     95 H95        24.0536    0.9269   -3.4376 H         1 UNK         0.0784 
     96 H96        21.6303    1.4461   -3.8057 H         1 UNK         0.0793 
     97 H97        21.2359   -0.2615   -3.6650 H         1 UNK         0.0793 
     98 H98        21.8937    0.6154   -2.2829 H         1 UNK         0.0793 
     99 H99        23.1418   -1.5274   -2.5456 H         1 UNK         0.3024 
    100 H100       24.5657   -2.9606   -1.6519 H         1 UNK         0.1171 
    101 H101       24.1170   -4.2445   -3.7756 H         1 UNK         0.0786 
    102 H102       25.8406   -4.2605   -4.1241 H         1 UNK         0.0786 
    103 H103       25.2165   -5.0994   -2.7080 H         1 UNK         0.0786 
    104 H104       27.3074   -3.5229   -2.3309 H         1 UNK         0.2977 
    105 H105       26.6594   -0.2284   -5.4713 H         1 UNK         0.3127 
    106 H106       28.8268    1.5607   -5.9072 H         1 UNK         0.0770 
    107 H107       26.1468    2.0294   -4.4909 H         1 UNK         0.0814 
    108 H108       27.5758    3.0422   -4.3408 H         1 UNK         0.0814 
    109 H109       27.6091    1.3884   -3.7467 H         1 UNK         0.0814 
    110 H110       25.3715    1.7643   -6.9575 H         1 UNK         0.2983 
    111 H111       25.5714    4.2122   -8.3514 H         1 UNK         0.0947 
    112 H112       23.4415    3.4774   -9.4367 H         1 UNK         0.0806 
    113 H113       23.4085    3.1843   -7.7057 H         1 UNK         0.0806 
    114 H114       23.6793    1.8472   -8.8227 H         1 UNK         0.0806 
    115 H115       26.2888    0.9031   -9.4505 H         1 UNK         0.3000 
    116 H116       26.8480    1.6015  -12.1933 H         1 UNK         0.0850 
    117 H117       27.8038   -0.7019  -12.2685 H         1 UNK         0.0810 
    118 H118       26.2308   -0.7057  -11.4897 H         1 UNK         0.0810 
    119 H119       27.6969   -0.8239  -10.5185 H         1 UNK         0.0810 
    120 H120       28.5412    2.4017   -9.3795 H         1 UNK         0.3040 
    121 H121       30.5029    3.2172   -8.8574 H         1 UNK         0.0766 
    122 H122       31.0158    3.6492  -11.8465 H         1 UNK         0.0812 
    123 H123       31.8222    4.4631  -10.5157 H         1 UNK         0.0812 
    124 H124       30.1141    4.7488  -10.8032 H         1 UNK         0.0812 
    125 H125       30.3120    0.4296   -8.9455 H         1 UNK         0.3205 
    126 H126       32.8074   -0.6876   -9.9781 H         1 UNK         0.0754 
    127 H127       31.9621   -2.7529   -8.8478 H         1 UNK         0.0769 
    128 H128       30.6931   -2.0312   -9.8236 H         1 UNK         0.0769 
    129 H129       30.6902   -1.8170   -8.0778 H         1 UNK         0.0769 
    130 H130       34.1786   -1.9449   -8.4402 H         1 UNK         0.2981 
    131 H131       35.6752   -2.1441   -6.9510 H         1 UNK         0.0541 
    132 H132       36.6733    1.6091   -7.1824 H         1 UNK         0.3459 
    133 H133       35.3063    0.9088   -8.0151 H         1 UNK         0.3459 
    134 H134       35.1143   -2.4994   -4.7815 H         1 UNK         0.0612 
    135 H135       33.5609   -2.5607   -5.5278 H         1 UNK         0.0612 
    136 H136       31.6071   -0.0699   -3.3399 H         1 UNK         0.0624 
    137 H137       31.6510   -0.3648   -5.0530 H         1 UNK         0.0624 
@<TRIPOS>BOND
     1    1    2 1    
     2    1   72 1    
     3    1   73 1    
     4    1   74 1    
     5    2    3 2    
     6    2    4 am   BACKBONE|DICT|INTERRES
     7    4    5 1    
     8    4   75 1    
     9    5    6 1    
    10    5   35 1    
    11    5   76 1    
    12    6    7 1    
    13    6   77 1    
    14    6   78 1    
    15    7    8 1    
    16    8    9 1    
    17    8   79 1    
    18    8   80 1    
    19    9   10 ar   
    20    9   14 ar   
    21   10   11 ar   
    22   10   81 1    
    23   11   12 ar   
    24   11   71 1    
    25   12   13 ar   
    26   12   82 1    
    27   13   14 ar   
    28   13   15 1    
    29   14   83 1    
    30   15   16 1    
    31   15   84 1    
    32   15   85 1    
    33   16   17 1    
    34   17   18 1    
    35   17   86 1    
    36   17   87 1    
    37   18   19 1    
    38   18   37 1    
    39   18   88 1    
    40   19   20 am   BACKBONE|DICT|INTERRES
    41   19   89 1    
    42   20   21 2    
    43   20   22 1    
    44   22   23 1    
    45   22   24 1    
    46   22   90 1    
    47   23   91 1    
    48   23   92 1    
    49   23   93 1    
    50   24   25 am   BACKBONE|DICT|INTERRES
    51   24   94 1    
    52   25   26 2    
    53   25   27 1    
    54   27   28 1    
    55   27   29 1    
    56   27   95 1    
    57   28   96 1    
    58   28   97 1    
    59   28   98 1    
    60   29   30 am   BACKBONE|DICT|INTERRES
    61   29   99 1    
    62   30   31 2    
    63   30   32 1    
    64   32   33 1    
    65   32   34 1    
    66   32  100 1    
    67   33  101 1    
    68   33  102 1    
    69   33  103 1    
    70   34   35 am   BACKBONE|DICT|INTERRES
    71   34  104 1    
    72   35   36 2    
    73   37   38 2    
    74   37   39 am   BACKBONE|DICT|INTERRES
    75   39   40 1    
    76   39  105 1    
    77   40   41 1    
    78   40   42 1    
    79   40  106 1    
    80   41  107 1    
    81   41  108 1    
    82   41  109 1    
    83   42   43 2    
    84   42   44 am   BACKBONE|DICT|INTERRES
    85   44   45 1    
    86   44  110 1    
    87   45   46 1    
    88   45   47 1    
    89   45  111 1    
    90   46  112 1    
    91   46  113 1    
    92   46  114 1    
    93   47   48 2    
    94   47   49 am   BACKBONE|DICT|INTERRES
    95   49   50 1    
    96   49  115 1    
    97   50   51 1    
    98   50   52 1    
    99   50  116 1    
   100   51  117 1    
   101   51  118 1    
   102   51  119 1    
   103   52   53 2    
   104   52   54 am   BACKBONE|DICT|INTERRES
   105   54   55 1    
   106   54  120 1    
   107   55   56 1    
   108   55   57 1    
   109   55  121 1    
   110   56  122 1    
   111   56  123 1    
   112   56  124 1    
   113   57   58 2    
   114   57   59 am   BACKBONE|DICT|INTERRES
   115   59   60 1    
   116   59  125 1    
   117   60   61 1    
   118   60   62 1    
   119   60  126 1    
   120   61  127 1    
   121   61  128 1    
   122   61  129 1    
   123   62   63 2    
   124   62   64 am   BACKBONE|DICT|INTERRES
   125   64   65 1    
   126   64  130 1    
   127   65   66 1    
   128   65   69 1    
   129   65  131 1    
   130   66   67 am   BACKBONE|DICT|INTERRES
   131   66   68 2    
   132   67  132 1    
   133   67  133 1    
   134   69   70 1    
   135   69  134 1    
   136   69  135 1    
   137   70   71 1    
   138   71  136 1    
   139   71  137 1    
@<TRIPOS>SUBSTRUCTURE
     1 UNK         1 GROUP             0       ****    0 ROOT    
