@<TRIPOS>MOLECULE
3R137
137   139    1
SMALL
USER_CHARGES


@<TRIPOS>ATOM
      1 CA         24.6282   -4.1439   -0.1848 C.3       0 UNK        -0.2020 
      2 C          25.9076   -3.3292   -0.0725 C.2       0 UNK         0.4855 
      3 O          26.0834   -2.5912    0.8974 O.2       0 UNK        -0.5197 
      4 N          26.8012   -3.4396   -1.0646 N.am      1 UNK        -0.4892 
      5 CA         28.1039   -2.7604   -1.1223 C.3       1 UNK         0.0835 
      6 C6         29.1118   -3.5829   -1.9653 C.3       12 UNK        -0.0855 
      7 S7         30.8290   -3.4159   -1.3761 S.3       12 UNK        -0.2931 
      8 C8         31.6253   -4.8264   -2.2132 C.3       12 UNK         0.0378 
      9 C9         31.7208   -4.6030   -3.7155 C.ar      12 UNK        -0.0802 
     10 C10        32.8654   -4.0250   -4.2720 C.ar      12 UNK        -0.0944 
     11 C11        32.9456   -3.8008   -5.6492 C.ar      12 UNK        -0.0787 
     12 C12        31.8574   -4.1261   -6.4658 C.ar      12 UNK        -0.0862 
     13 C13        30.7008   -4.6902   -5.9191 C.ar      12 UNK        -0.0733 
     14 C14        30.6571   -4.9618   -4.5488 C.ar      12 UNK        -0.0832 
     15 C15        29.4937   -4.9796   -6.8074 C.3       12 UNK         0.0240 
     16 S16        27.9360   -4.2838   -6.1476 S.3       12 UNK        -0.2522 
     17 C17        28.3433   -2.5123   -5.9839 C.3       12 UNK        -0.0967 
     18 CA         27.5485   -1.6179   -6.9597 C.3       5 UNK         0.0660 
     19 N          26.1027   -1.6923   -6.7342 N.am      5 UNK        -0.4015 
     20 C          25.1728   -1.0846   -7.4831 C.2       4 UNK         0.4946 
     21 O          25.4328   -0.4297   -8.4934 O.2       4 UNK        -0.5353 
     22 CA         23.7175   -1.1563   -6.9858 C.3       4 UNK         0.0277 
     23 CB         23.0013   -2.3646   -7.6091 C.3       4 UNK        -0.1981 
     24 N          23.5631   -1.1934   -5.5225 N.am      4 UNK        -0.4209 
     25 C          24.0820   -0.3077   -4.6567 C.2       3 UNK         0.4942 
     26 O          24.8152    0.6161   -5.0085 O.2       3 UNK        -0.5208 
     27 CA         23.7469   -0.4822   -3.1605 C.3       3 UNK         0.0250 
     28 CB         23.1200   -1.8491   -2.8150 C.3       3 UNK        -0.1990 
     29 N          24.9407   -0.2922   -2.3346 N.am      3 UNK        -0.4232 
     30 C          25.4342    0.8806   -1.9098 C.2       2 UNK         0.4993 
     31 O          24.8826    1.9644   -2.1066 O.2       2 UNK        -0.5286 
     32 CA         26.7485    0.8444   -1.0993 C.3       2 UNK         0.0209 
     33 CB         26.6050    1.6153    0.2251 C.3       2 UNK        -0.1931 
     34 N          27.1959   -0.5184   -0.7977 N.am      2 UNK        -0.4546 
     35 C          27.9320   -1.2984   -1.5989 C.2       1 UNK         0.5154 
     36 O          28.3788   -0.9236   -2.6852 O.2       1 UNK        -0.5181 
     37 C          28.0978   -0.1773   -6.9085 C.2       5 UNK         0.5014 
     38 O          29.0731    0.1007   -7.6044 O.2       5 UNK        -0.5248 
     39 N          27.4836    0.7235   -6.1258 N.am      6 UNK        -0.4434 
     40 CA         27.8803    2.1335   -6.0531 C.3       6 UNK         0.0363 
     41 CB         27.2900    2.7817   -4.7927 C.3       6 UNK        -0.1936 
     42 C          27.4947    2.9314   -7.3112 C.2       6 UNK         0.5081 
     43 O          28.1002    3.9716   -7.5659 O.2       6 UNK        -0.5248 
     44 N          26.5213    2.4339   -8.0851 N.am      7 UNK        -0.4718 
     45 CA         26.1669    2.9686   -9.3983 C.3       7 UNK         0.0273 
     46 CB         24.6521    2.8253   -9.6224 C.3       7 UNK        -0.1935 
     47 C          26.9551    2.2544  -10.5062 C.2       7 UNK         0.5018 
     48 O          27.4828    2.9209  -11.3967 O.2       7 UNK        -0.5186 
     49 N          27.0078    0.9162  -10.4403 N.am      8 UNK        -0.4240 
     50 CA         27.5930    0.0604  -11.4728 C.3       8 UNK         0.0235 
     51 CB         27.0843   -1.3792  -11.2900 C.3       8 UNK        -0.2000 
     52 C          29.1293    0.0843  -11.5199 C.2       8 UNK         0.4941 
     53 O          29.6873    0.1197  -12.6176 O.2       8 UNK        -0.5273 
     54 N          29.7821    0.0256  -10.3513 N.am      9 UNK        -0.4262 
     55 CA         31.2323   -0.1591  -10.2214 C.3       9 UNK         0.0264 
     56 CB         31.4866   -1.5484   -9.6088 C.3       9 UNK        -0.1955 
     57 C          31.9170    0.9317   -9.3801 C.2       9 UNK         0.5031 
     58 O          33.1459    0.9427   -9.3174 O.2       9 UNK        -0.5390 
     59 N          31.1355    1.7984   -8.7200 N.am      10 UNK        -0.4204 
     60 CA         31.5186    2.8605   -7.7752 C.3       10 UNK         0.0237 
     61 CB         32.5398    3.8452   -8.3792 C.3       10 UNK        -0.1985 
     62 C          31.9745    2.3484   -6.3956 C.2       10 UNK         0.4970 
     63 O          31.7129    3.0208   -5.3982 O.2       10 UNK        -0.4914 
     64 N          32.6206    1.1791   -6.3488 N.am      11 UNK        -0.4285 
     65 CA         33.0674    0.4865   -5.1297 C.3       11 UNK         0.1007 
     66 C          31.9427   -0.1294   -4.2455 C.2       11 UNK         0.5703 
     67 N          30.6939   -0.1948   -4.6903 N.am      11 UNK        -0.7361 
     68 O          32.2097   -0.5096   -3.1090 O.2       11 UNK        -0.4986 
     69 C69        34.2261   -0.5095   -5.4204 C.3       12 UNK        -0.0947 
     70 S70        33.9777   -1.5497   -6.9014 S.3       12 UNK        -0.2240 
     71 C71        34.2152   -3.2346   -6.2650 C.3       12 UNK         0.0194 
     72 H72        24.6218   -4.9332    0.5663 H         1 UNK         0.0906 
     73 H73        23.7603   -3.5078   -0.0144 H         1 UNK         0.0906 
     74 H74        24.5223   -4.6060   -1.1660 H         1 UNK         0.0906 
     75 H75        26.5946   -4.0472   -1.8453 H         1 UNK         0.3140 
     76 H76        28.4906   -2.7112   -0.1012 H         1 UNK         0.1085 
     77 H77        28.8643   -4.6439   -1.9017 H         1 UNK         0.0836 
     78 H78        29.0576   -3.3315   -3.0247 H         1 UNK         0.0836 
     79 H79        32.6229   -4.9657   -1.7937 H         1 UNK         0.0731 
     80 H80        31.0759   -5.7442   -1.9982 H         1 UNK         0.0731 
     81 H81        33.6939   -3.7529   -3.6324 H         1 UNK         0.1312 
     82 H82        31.9135   -3.9299   -7.5279 H         1 UNK         0.1406 
     83 H83        29.7704   -5.4121   -4.1249 H         1 UNK         0.1631 
     84 H84        29.3824   -6.0594   -6.9127 H         1 UNK         0.0717 
     85 H85        29.6496   -4.5839   -7.8123 H         1 UNK         0.0717 
     86 H86        28.1484   -2.2147   -4.9534 H         1 UNK         0.0934 
     87 H87        29.4156   -2.3743   -6.1339 H         1 UNK         0.0934 
     88 H88        27.7318   -1.9835   -7.9715 H         1 UNK         0.0739 
     89 H89        25.8024   -2.2217   -5.9297 H         1 UNK         0.3093 
     90 H90        23.2205   -0.2489   -7.3353 H         1 UNK         0.0818 
     91 H91        21.9379   -2.3644   -7.3695 H         1 UNK         0.0819 
     92 H92        23.0847   -2.3488   -8.6970 H         1 UNK         0.0819 
     93 H93        23.4248   -3.3087   -7.2639 H         1 UNK         0.0819 
     94 H94        22.9739   -1.9257   -5.1531 H         1 UNK         0.3041 
     95 H95        23.0192    0.2925   -2.9102 H         1 UNK         0.0784 
     96 H96        22.1683   -1.9954   -3.3275 H         1 UNK         0.0793 
     97 H97        23.7763   -2.6804   -3.0765 H         1 UNK         0.0793 
     98 H98        22.9082   -1.9188   -1.7480 H         1 UNK         0.0793 
     99 H99        25.4860   -1.1164   -2.1360 H         1 UNK         0.3024 
    100 H100       27.5115    1.3416   -1.7016 H         1 UNK         0.1171 
    101 H101       26.3334    2.6568    0.0477 H         1 UNK         0.0786 
    102 H102       27.5406    1.6194    0.7847 H         1 UNK         0.0786 
    103 H103       25.8340    1.1803    0.8625 H         1 UNK         0.0786 
    104 H104       26.8158   -0.9488    0.0413 H         1 UNK         0.2977 
    105 H105       26.6379    0.4694   -5.6204 H         1 UNK         0.3127 
    106 H106       28.9671    2.1739   -5.9625 H         1 UNK         0.0770 
    107 H107       26.2008    2.8182   -4.8237 H         1 UNK         0.0814 
    108 H108       27.6455    3.8066   -4.6805 H         1 UNK         0.0814 
    109 H109       27.5851    2.2372   -3.8972 H         1 UNK         0.0814 
    110 H110       26.0836    1.5613   -7.8162 H         1 UNK         0.2983 
    111 H111       26.4109    4.0325   -9.4460 H         1 UNK         0.0947 
    112 H112       24.3632    3.2291  -10.5937 H         1 UNK         0.0806 
    113 H113       24.0883    3.3701   -8.8651 H         1 UNK         0.0806 
    114 H114       24.3289    1.7842   -9.5938 H         1 UNK         0.0806 
    115 H115       26.4989    0.4455   -9.6938 H         1 UNK         0.3000 
    116 H116       27.2333    0.4173  -12.4406 H         1 UNK         0.0850 
    117 H117       27.4711   -2.0331  -12.0729 H         1 UNK         0.0810 
    118 H118       25.9961   -1.4241  -11.3387 H         1 UNK         0.0810 
    119 H119       27.3918   -1.7997  -10.3326 H         1 UNK         0.0810 
    120 H120       29.2551   -0.0008   -9.4822 H         1 UNK         0.3040 
    121 H121       31.7108   -0.1306  -11.2023 H         1 UNK         0.0766 
    122 H122       32.5543   -1.7659   -9.5647 H         1 UNK         0.0812 
    123 H123       31.0234   -2.3361  -10.2028 H         1 UNK         0.0812 
    124 H124       31.0950   -1.6192   -8.5929 H         1 UNK         0.0812 
    125 H125       30.1410    1.6203   -8.7656 H         1 UNK         0.3205 
    126 H126       30.6064    3.4278   -7.5976 H         1 UNK         0.0754 
    127 H127       32.6844    4.7024   -7.7203 H         1 UNK         0.0769 
    128 H128       32.1995    4.2294   -9.3408 H         1 UNK         0.0769 
    129 H129       33.5178    3.3866   -8.5258 H         1 UNK         0.0769 
    130 H130       32.8321    0.7126   -7.2228 H         1 UNK         0.2981 
    131 H131       33.4992    1.2612   -4.4930 H         1 UNK         0.0541 
    132 H132       30.4628    0.1180   -5.6197 H         1 UNK         0.3459 
    133 H133       29.9773   -0.5453   -4.0665 H         1 UNK         0.3459 
    134 H134       34.4367   -1.1362   -4.5519 H         1 UNK         0.0612 
    135 H135       35.1417    0.0582   -5.5919 H         1 UNK         0.0612 
    136 H136       34.5174   -3.8757   -7.0941 H         1 UNK         0.0624 
    137 H137       35.0432   -3.2487   -5.5547 H         1 UNK         0.0624 
@<TRIPOS>BOND
     1    1    2 1    
     2    1   72 1    
     3    1   73 1    
     4    1   74 1    
     5    2    3 2    
     6    2    4 am   BACKBONE|DICT|INTERRES
     7    4    5 1    
     8    4   75 1    
     9    5    6 1    
    10    5   35 1    
    11    5   76 1    
    12    6    7 1    
    13    6   77 1    
    14    6   78 1    
    15    7    8 1    
    16    8    9 1    
    17    8   79 1    
    18    8   80 1    
    19    9   10 ar   
    20    9   14 ar   
    21   10   11 ar   
    22   10   81 1    
    23   11   12 ar   
    24   11   71 1    
    25   12   13 ar   
    26   12   82 1    
    27   13   14 ar   
    28   13   15 1    
    29   14   83 1    
    30   15   16 1    
    31   15   84 1    
    32   15   85 1    
    33   16   17 1    
    34   17   18 1    
    35   17   86 1    
    36   17   87 1    
    37   18   19 1    
    38   18   37 1    
    39   18   88 1    
    40   19   20 am   BACKBONE|DICT|INTERRES
    41   19   89 1    
    42   20   21 2    
    43   20   22 1    
    44   22   23 1    
    45   22   24 1    
    46   22   90 1    
    47   23   91 1    
    48   23   92 1    
    49   23   93 1    
    50   24   25 am   BACKBONE|DICT|INTERRES
    51   24   94 1    
    52   25   26 2    
    53   25   27 1    
    54   27   28 1    
    55   27   29 1    
    56   27   95 1    
    57   28   96 1    
    58   28   97 1    
    59   28   98 1    
    60   29   30 am   BACKBONE|DICT|INTERRES
    61   29   99 1    
    62   30   31 2    
    63   30   32 1    
    64   32   33 1    
    65   32   34 1    
    66   32  100 1    
    67   33  101 1    
    68   33  102 1    
    69   33  103 1    
    70   34   35 am   BACKBONE|DICT|INTERRES
    71   34  104 1    
    72   35   36 2    
    73   37   38 2    
    74   37   39 am   BACKBONE|DICT|INTERRES
    75   39   40 1    
    76   39  105 1    
    77   40   41 1    
    78   40   42 1    
    79   40  106 1    
    80   41  107 1    
    81   41  108 1    
    82   41  109 1    
    83   42   43 2    
    84   42   44 am   BACKBONE|DICT|INTERRES
    85   44   45 1    
    86   44  110 1    
    87   45   46 1    
    88   45   47 1    
    89   45  111 1    
    90   46  112 1    
    91   46  113 1    
    92   46  114 1    
    93   47   48 2    
    94   47   49 am   BACKBONE|DICT|INTERRES
    95   49   50 1    
    96   49  115 1    
    97   50   51 1    
    98   50   52 1    
    99   50  116 1    
   100   51  117 1    
   101   51  118 1    
   102   51  119 1    
   103   52   53 2    
   104   52   54 am   BACKBONE|DICT|INTERRES
   105   54   55 1    
   106   54  120 1    
   107   55   56 1    
   108   55   57 1    
   109   55  121 1    
   110   56  122 1    
   111   56  123 1    
   112   56  124 1    
   113   57   58 2    
   114   57   59 am   BACKBONE|DICT|INTERRES
   115   59   60 1    
   116   59  125 1    
   117   60   61 1    
   118   60   62 1    
   119   60  126 1    
   120   61  127 1    
   121   61  128 1    
   122   61  129 1    
   123   62   63 2    
   124   62   64 am   BACKBONE|DICT|INTERRES
   125   64   65 1    
   126   64  130 1    
   127   65   66 1    
   128   65   69 1    
   129   65  131 1    
   130   66   67 am   BACKBONE|DICT|INTERRES
   131   66   68 2    
   132   67  132 1    
   133   67  133 1    
   134   69   70 1    
   135   69  134 1    
   136   69  135 1    
   137   70   71 1    
   138   71  136 1    
   139   71  137 1    
@<TRIPOS>SUBSTRUCTURE
     1 UNK         1 GROUP             0       ****    0 ROOT    
