@<TRIPOS>MOLECULE
3R137
137   139    1
SMALL
USER_CHARGES


@<TRIPOS>ATOM
      1 CA         27.2420   -5.4523   -8.6584 C.3       0 UNK        -0.2020 
      2 C          26.7702   -5.4632   -7.2119 C.2       0 UNK         0.4855 
      3 O          25.8977   -6.2579   -6.8601 O.2       0 UNK        -0.5197 
      4 N          27.3558   -4.6058   -6.3677 N.am      1 UNK        -0.4892 
      5 CA         27.0534   -4.5057   -4.9368 C.3       1 UNK         0.0835 
      6 C6         28.1706   -3.7601   -4.1710 C.3       12 UNK        -0.0855 
      7 S7         29.7575   -4.6593   -4.2569 S.3       12 UNK        -0.2931 
      8 C8         30.5596   -4.1560   -2.7037 C.3       12 UNK         0.0378 
      9 C9         30.9957   -2.6977   -2.7342 C.ar      12 UNK        -0.0802 
     10 C10        32.2391   -2.3450   -3.2615 C.ar      12 UNK        -0.0944 
     11 C11        32.6729   -1.0159   -3.2590 C.ar      12 UNK        -0.0787 
     12 C12        31.8271   -0.0305   -2.7239 C.ar      12 UNK        -0.0862 
     13 C13        30.5738   -0.3636   -2.1908 C.ar      12 UNK        -0.0733 
     14 C14        30.1720   -1.7062   -2.2001 C.ar      12 UNK        -0.0832 
     15 C15        29.7227    0.7402   -1.5504 C.3       12 UNK         0.0240 
     16 S16        27.9865    0.2865   -1.1803 S.3       12 UNK        -0.2522 
     17 C17        27.0236    0.9784   -2.5670 C.3       12 UNK        -0.0967 
     18 CA         27.0233    0.0893   -3.8511 C.3       5 UNK         0.0660 
     19 N          25.7150    0.0745   -4.5047 N.am      5 UNK        -0.4015 
     20 C          25.1300    1.0962   -5.1485 C.2       4 UNK         0.4946 
     21 O          25.6727    2.1819   -5.3631 O.2       4 UNK        -0.5353 
     22 CA         23.6770    0.8811   -5.6052 C.3       4 UNK         0.0277 
     23 CB         23.6354    0.2339   -6.9966 C.3       4 UNK        -0.1981 
     24 N          22.9076    0.0587   -4.6681 N.am      4 UNK        -0.4209 
     25 C          22.5847    0.4164   -3.4156 C.2       3 UNK         0.4942 
     26 O          22.8059    1.5314   -2.9422 O.2       3 UNK        -0.5208 
     27 CA         21.9117   -0.6520   -2.5336 C.3       3 UNK         0.0250 
     28 CB         20.3880   -0.4478   -2.5091 C.3       3 UNK        -0.1990 
     29 N          22.2082   -2.0280   -2.9483 N.am      3 UNK        -0.4232 
     30 C          23.4132   -2.6115   -2.8716 C.2       2 UNK         0.4993 
     31 O          24.4045   -2.0594   -2.3892 O.2       2 UNK        -0.5286 
     32 CA         23.5218   -4.0512   -3.4179 C.3       2 UNK         0.0209 
     33 CB         22.5633   -4.3287   -4.6002 C.3       2 UNK        -0.1931 
     34 N          24.8933   -4.4316   -3.7861 N.am      2 UNK        -0.4546 
     35 C          25.6770   -3.8475   -4.7056 C.2       1 UNK         0.5154 
     36 O          25.3623   -2.8382   -5.3432 O.2       1 UNK        -0.5181 
     37 C          28.1231    0.4152   -4.8838 C.2       5 UNK         0.5014 
     38 O          28.3111   -0.3524   -5.8314 O.2       5 UNK        -0.5248 
     39 N          28.7890    1.5654   -4.7189 N.am      6 UNK        -0.4434 
     40 CA         29.8741    2.0608   -5.5583 C.3       6 UNK         0.0363 
     41 CB         30.4051    3.3803   -4.9770 C.3       6 UNK        -0.1936 
     42 C          29.5065    2.2387   -7.0362 C.2       6 UNK         0.5081 
     43 O          30.3677    2.0218   -7.8889 O.2       6 UNK        -0.5248 
     44 N          28.2451    2.5995   -7.3117 N.am      7 UNK        -0.4718 
     45 CA         27.7209    2.7946   -8.6649 C.3       7 UNK         0.0273 
     46 CB         26.3587    3.5021   -8.5877 C.3       7 UNK        -0.1935 
     47 C          27.6054    1.4865   -9.4646 C.2       7 UNK         0.5018 
     48 O          27.7495    1.5193  -10.6870 O.2       7 UNK        -0.5186 
     49 N          27.3585    0.3682   -8.7691 N.am      8 UNK        -0.4240 
     50 CA         27.3008   -0.9673   -9.3631 C.3       8 UNK         0.0235 
     51 CB         26.2388   -1.8067   -8.6416 C.3       8 UNK        -0.2000 
     52 C          28.6683   -1.6612   -9.3213 C.2       8 UNK         0.4941 
     53 O          29.0207   -2.3497  -10.2788 O.2       8 UNK        -0.5273 
     54 N          29.4163   -1.4710   -8.2247 N.am      9 UNK        -0.4262 
     55 CA         30.7526   -2.0375   -8.0266 C.3       9 UNK         0.0264 
     56 CB         31.1399   -1.8920   -6.5474 C.3       9 UNK        -0.1955 
     57 C          31.8427   -1.4047   -8.9104 C.2       9 UNK         0.5031 
     58 O          32.8677   -2.0504   -9.1327 O.2       9 UNK        -0.5390 
     59 N          31.6252   -0.1556   -9.3550 N.am      10 UNK        -0.4204 
     60 CA         32.5945    0.7375  -10.0065 C.3       10 UNK         0.0237 
     61 CB         33.0431    0.1897  -11.3785 C.3       10 UNK        -0.1985 
     62 C          33.7642    1.0646   -9.0570 C.2       10 UNK         0.4970 
     63 O          34.9313    0.9771   -9.4436 O.2       10 UNK        -0.4914 
     64 N          33.4080    1.3889   -7.8085 N.am      11 UNK        -0.4285 
     65 CA         34.3294    1.6456   -6.6952 C.3       11 UNK         0.1007 
     66 C          35.1068    2.9810   -6.8545 C.2       11 UNK         0.5703 
     67 N          36.3367    3.0466   -6.3636 N.am      11 UNK        -0.7361 
     68 O          34.5942    3.9641   -7.3873 O.2       11 UNK        -0.4986 
     69 C69        33.5633    1.5691   -5.3496 C.3       12 UNK        -0.0947 
     70 S70        34.5785    1.0215   -3.9434 S.3       12 UNK        -0.2240 
     71 C71        34.0758   -0.7311   -3.8118 C.3       12 UNK         0.0194 
     72 H72        27.6639   -6.4221   -8.9204 H         1 UNK         0.0906 
     73 H73        26.4045   -5.2562   -9.3272 H         1 UNK         0.0906 
     74 H74        28.0055   -4.6948   -8.8346 H         1 UNK         0.0906 
     75 H75        28.0617   -3.9680   -6.7041 H         1 UNK         0.3140 
     76 H76        27.0055   -5.5244   -4.5445 H         1 UNK         0.1085 
     77 H77        28.3168   -2.7585   -4.5768 H         1 UNK         0.0836 
     78 H78        27.8919   -3.6351   -3.1229 H         1 UNK         0.0836 
     79 H79        29.8880   -4.3419   -1.8641 H         1 UNK         0.0731 
     80 H80        31.4296   -4.7934   -2.5381 H         1 UNK         0.0731 
     81 H81        32.8806   -3.1166   -3.6656 H         1 UNK         0.1312 
     82 H82        32.1465    1.0012   -2.6939 H         1 UNK         0.1406 
     83 H83        29.2256   -2.0007   -1.7717 H         1 UNK         0.1631 
     84 H84        29.7481    1.6423   -2.1609 H         1 UNK         0.0717 
     85 H85        30.1964    1.0092   -0.6055 H         1 UNK         0.0717 
     86 H86        26.0033    1.0293   -2.1813 H         1 UNK         0.0934 
     87 H87        27.2815    2.0234   -2.7395 H         1 UNK         0.0934 
     88 H88        27.1888   -0.9440   -3.5460 H         1 UNK         0.0739 
     89 H89        25.2243   -0.8111   -4.4553 H         1 UNK         0.3093 
     90 H90        23.2031    1.8631   -5.6660 H         1 UNK         0.0818 
     91 H91        22.6216    0.2207   -7.3968 H         1 UNK         0.0819 
     92 H92        24.2570    0.7805   -7.7071 H         1 UNK         0.0819 
     93 H93        23.9949   -0.7948   -6.9634 H         1 UNK         0.0819 
     94 H94        22.6745   -0.8758   -4.9695 H         1 UNK         0.3041 
     95 H95        22.2914   -0.5194   -1.5180 H         1 UNK         0.0784 
     96 H96        20.1350    0.5598   -2.1756 H         1 UNK         0.0793 
     97 H97        19.9449   -0.5845   -3.4964 H         1 UNK         0.0793 
     98 H98        19.9045   -1.1437   -1.8232 H         1 UNK         0.0793 
     99 H99        21.4418   -2.5560   -3.3406 H         1 UNK         0.3024 
    100 H100       23.2349   -4.7059   -2.5932 H         1 UNK         0.1171 
    101 H101       22.7168   -5.3306   -5.0018 H         1 UNK         0.0786 
    102 H102       22.7110   -3.6225   -5.4185 H         1 UNK         0.0786 
    103 H103       21.5176   -4.2727   -4.2961 H         1 UNK         0.0786 
    104 H104       25.2636   -5.2265   -3.2838 H         1 UNK         0.2977 
    105 H105       28.5159    2.1604   -3.9522 H         1 UNK         0.3127 
    106 H106       30.6600    1.3121   -5.5128 H         1 UNK         0.0770 
    107 H107       29.6173    4.1299   -4.8935 H         1 UNK         0.0814 
    108 H108       31.1841    3.8054   -5.6117 H         1 UNK         0.0814 
    109 H109       30.8379    3.2341   -3.9872 H         1 UNK         0.0814 
    110 H110       27.5915    2.7138   -6.5454 H         1 UNK         0.2983 
    111 H111       28.4142    3.4450   -9.2033 H         1 UNK         0.0947 
    112 H112       25.9583    3.6884   -9.5853 H         1 UNK         0.0806 
    113 H113       26.4405    4.4669   -8.0871 H         1 UNK         0.0806 
    114 H114       25.6227    2.9062   -8.0472 H         1 UNK         0.0806 
    115 H115       27.3042    0.4273   -7.7604 H         1 UNK         0.3000 
    116 H116       27.0038   -0.8925  -10.4118 H         1 UNK         0.0850 
    117 H117       26.2145   -2.8243   -9.0284 H         1 UNK         0.0810 
    118 H118       25.2454   -1.3904   -8.7988 H         1 UNK         0.0810 
    119 H119       26.4229   -1.8625   -7.5682 H         1 UNK         0.0810 
    120 H120       29.0268   -0.9477   -7.4425 H         1 UNK         0.3040 
    121 H121       30.7078   -3.1020   -8.2661 H         1 UNK         0.0766 
    122 H122       32.0927   -2.3807   -6.3405 H         1 UNK         0.0812 
    123 H123       30.3957   -2.3432   -5.8939 H         1 UNK         0.0812 
    124 H124       31.2389   -0.8474   -6.2564 H         1 UNK         0.0812 
    125 H125       30.7731    0.3022   -9.0506 H         1 UNK         0.3205 
    126 H126       32.0719    1.6788  -10.1841 H         1 UNK         0.0754 
    127 H127       33.6591    0.9198  -11.9047 H         1 UNK         0.0769 
    128 H128       32.1865   -0.0315  -12.0151 H         1 UNK         0.0769 
    129 H129       33.6341   -0.7215  -11.2827 H         1 UNK         0.0769 
    130 H130       32.4218    1.5175   -7.6198 H         1 UNK         0.2981 
    131 H131       35.0587    0.8329   -6.7178 H         1 UNK         0.0541 
    132 H132       36.8532    3.9082   -6.4454 H         1 UNK         0.3459 
    133 H133       36.7510    2.2547   -5.8968 H         1 UNK         0.3459 
    134 H134       32.7508    0.8515   -5.4358 H         1 UNK         0.0612 
    135 H135       33.1027    2.5243   -5.0976 H         1 UNK         0.0612 
    136 H136       34.1727   -1.1896   -4.7974 H         1 UNK         0.0624 
    137 H137       34.7999   -1.2331   -3.1689 H         1 UNK         0.0624 
@<TRIPOS>BOND
     1    1    2 1    
     2    1   72 1    
     3    1   73 1    
     4    1   74 1    
     5    2    3 2    
     6    2    4 am   BACKBONE|DICT|INTERRES
     7    4    5 1    
     8    4   75 1    
     9    5    6 1    
    10    5   35 1    
    11    5   76 1    
    12    6    7 1    
    13    6   77 1    
    14    6   78 1    
    15    7    8 1    
    16    8    9 1    
    17    8   79 1    
    18    8   80 1    
    19    9   10 ar   
    20    9   14 ar   
    21   10   11 ar   
    22   10   81 1    
    23   11   12 ar   
    24   11   71 1    
    25   12   13 ar   
    26   12   82 1    
    27   13   14 ar   
    28   13   15 1    
    29   14   83 1    
    30   15   16 1    
    31   15   84 1    
    32   15   85 1    
    33   16   17 1    
    34   17   18 1    
    35   17   86 1    
    36   17   87 1    
    37   18   19 1    
    38   18   37 1    
    39   18   88 1    
    40   19   20 am   BACKBONE|DICT|INTERRES
    41   19   89 1    
    42   20   21 2    
    43   20   22 1    
    44   22   23 1    
    45   22   24 1    
    46   22   90 1    
    47   23   91 1    
    48   23   92 1    
    49   23   93 1    
    50   24   25 am   BACKBONE|DICT|INTERRES
    51   24   94 1    
    52   25   26 2    
    53   25   27 1    
    54   27   28 1    
    55   27   29 1    
    56   27   95 1    
    57   28   96 1    
    58   28   97 1    
    59   28   98 1    
    60   29   30 am   BACKBONE|DICT|INTERRES
    61   29   99 1    
    62   30   31 2    
    63   30   32 1    
    64   32   33 1    
    65   32   34 1    
    66   32  100 1    
    67   33  101 1    
    68   33  102 1    
    69   33  103 1    
    70   34   35 am   BACKBONE|DICT|INTERRES
    71   34  104 1    
    72   35   36 2    
    73   37   38 2    
    74   37   39 am   BACKBONE|DICT|INTERRES
    75   39   40 1    
    76   39  105 1    
    77   40   41 1    
    78   40   42 1    
    79   40  106 1    
    80   41  107 1    
    81   41  108 1    
    82   41  109 1    
    83   42   43 2    
    84   42   44 am   BACKBONE|DICT|INTERRES
    85   44   45 1    
    86   44  110 1    
    87   45   46 1    
    88   45   47 1    
    89   45  111 1    
    90   46  112 1    
    91   46  113 1    
    92   46  114 1    
    93   47   48 2    
    94   47   49 am   BACKBONE|DICT|INTERRES
    95   49   50 1    
    96   49  115 1    
    97   50   51 1    
    98   50   52 1    
    99   50  116 1    
   100   51  117 1    
   101   51  118 1    
   102   51  119 1    
   103   52   53 2    
   104   52   54 am   BACKBONE|DICT|INTERRES
   105   54   55 1    
   106   54  120 1    
   107   55   56 1    
   108   55   57 1    
   109   55  121 1    
   110   56  122 1    
   111   56  123 1    
   112   56  124 1    
   113   57   58 2    
   114   57   59 am   BACKBONE|DICT|INTERRES
   115   59   60 1    
   116   59  125 1    
   117   60   61 1    
   118   60   62 1    
   119   60  126 1    
   120   61  127 1    
   121   61  128 1    
   122   61  129 1    
   123   62   63 2    
   124   62   64 am   BACKBONE|DICT|INTERRES
   125   64   65 1    
   126   64  130 1    
   127   65   66 1    
   128   65   69 1    
   129   65  131 1    
   130   66   67 am   BACKBONE|DICT|INTERRES
   131   66   68 2    
   132   67  132 1    
   133   67  133 1    
   134   69   70 1    
   135   69  134 1    
   136   69  135 1    
   137   70   71 1    
   138   71  136 1    
   139   71  137 1    
@<TRIPOS>SUBSTRUCTURE
     1 UNK         1 GROUP             0       ****    0 ROOT    
