@<TRIPOS>MOLECULE
3R137
137   139    1
SMALL
USER_CHARGES


@<TRIPOS>ATOM
      1 CA         28.6521   -6.2147    1.2768 C.3       0 UNK        -0.2020 
      2 C          28.1486   -4.9544    0.5892 C.2       0 UNK         0.4855 
      3 O          28.4291   -4.7657   -0.5942 O.2       0 UNK        -0.5197 
      4 N          27.4038   -4.1183    1.3307 N.am      1 UNK        -0.4892 
      5 CA         26.7808   -2.8173    1.0079 C.3       1 UNK         0.0835 
      6 C6         27.7361   -1.5882    1.0668 C.3       12 UNK        -0.0855 
      7 S7         29.2464   -1.6747    0.0480 S.3       12 UNK        -0.2931 
      8 C8         28.7587   -0.7422   -1.4334 C.3       12 UNK         0.0378 
      9 C9         29.7446   -0.9982   -2.5614 C.ar      12 UNK        -0.0802 
     10 C10        30.7839   -0.0997   -2.8201 C.ar      12 UNK        -0.0944 
     11 C11        31.7178   -0.3689   -3.8260 C.ar      12 UNK        -0.0787 
     12 C12        31.5931   -1.5368   -4.5867 C.ar      12 UNK        -0.0862 
     13 C13        30.5540   -2.4383   -4.3409 C.ar      12 UNK        -0.0733 
     14 C14        29.6334   -2.1623   -3.3258 C.ar      12 UNK        -0.0832 
     15 C15        30.4614   -3.7345   -5.1348 C.3       12 UNK         0.0240 
     16 S16        29.7501   -3.4938   -6.7931 S.3       12 UNK        -0.2522 
     17 C17        28.0111   -3.1211   -6.4034 C.3       12 UNK        -0.0967 
     18 CA         27.3924   -1.9870   -7.2562 C.3       5 UNK         0.0660 
     19 N          25.9479   -1.9091   -7.0241 N.am      5 UNK        -0.4015 
     20 C          25.0761   -1.2170   -7.7694 C.2       4 UNK         0.4946 
     21 O          25.3844   -0.5826   -8.7768 O.2       4 UNK        -0.5353 
     22 CA         23.6149   -1.2042   -7.2872 C.3       4 UNK         0.0277 
     23 CB         22.8662   -2.4460   -7.7968 C.3       4 UNK        -0.1981 
     24 N          23.4960   -1.1198   -5.8281 N.am      4 UNK        -0.4209 
     25 C          23.8782   -0.0586   -5.1027 C.2       3 UNK         0.4942 
     26 O          24.3302    0.9736   -5.5917 O.2       3 UNK        -0.5208 
     27 CA         23.7849   -0.1768   -3.5736 C.3       3 UNK         0.0250 
     28 CB         22.3965    0.2618   -3.0824 C.3       3 UNK        -0.1990 
     29 N          24.0895   -1.5144   -3.0577 N.am      3 UNK        -0.4232 
     30 C          25.2489   -2.1627   -3.2327 C.2       2 UNK         0.4993 
     31 O          26.1863   -1.7236   -3.9034 O.2       2 UNK        -0.5286 
     32 CA         25.3758   -3.5323   -2.5439 C.3       2 UNK         0.0209 
     33 CB         26.0138   -4.5780   -3.4750 C.3       2 UNK        -0.1931 
     34 N          26.1566   -3.4507   -1.3088 N.am      2 UNK        -0.4546 
     35 C          25.8198   -2.7764   -0.2041 C.2       1 UNK         0.5154 
     36 O          24.7640   -2.1500   -0.0975 O.2       1 UNK        -0.5181 
     37 C          28.0605   -0.6154   -7.0215 C.2       5 UNK         0.5014 
     38 O          28.8665   -0.1794   -7.8489 O.2       5 UNK        -0.5248 
     39 N          27.6582    0.0609   -5.9340 N.am      6 UNK        -0.4434 
     40 CA         28.0630    1.4291   -5.6098 C.3       6 UNK         0.0363 
     41 CB         27.5636    1.8001   -4.2053 C.3       6 UNK        -0.1936 
     42 C          27.5771    2.4555   -6.6487 C.2       6 UNK         0.5081 
     43 O          28.3684    3.2947   -7.0756 O.2       6 UNK        -0.5248 
     44 N          26.3037    2.3613   -7.0612 N.am      7 UNK        -0.4718 
     45 CA         25.6826    3.2241   -8.0740 C.3       7 UNK         0.0273 
     46 CB         24.1685    2.9675   -8.1231 C.3       7 UNK        -0.1935 
     47 C          26.3008    3.0631   -9.4719 C.2       7 UNK         0.5018 
     48 O          26.4787    4.0612  -10.1709 O.2       7 UNK        -0.5186 
     49 N          26.6521    1.8227   -9.8399 N.am      8 UNK        -0.4240 
     50 CA         27.4100    1.4983  -11.0524 C.3       8 UNK         0.0235 
     51 CB         27.3100   -0.0133  -11.3179 C.3       8 UNK        -0.2000 
     52 C          28.8888    1.9256  -10.9834 C.2       8 UNK         0.4941 
     53 O          29.5483    1.9476  -12.0234 O.2       8 UNK        -0.5273 
     54 N          29.3821    2.2317   -9.7729 N.am      9 UNK        -0.4262 
     55 CA         30.7638    2.5666   -9.4200 C.3       9 UNK         0.0264 
     56 CB         31.1841    3.9147  -10.0420 C.3       9 UNK        -0.1955 
     57 C          31.7440    1.4229   -9.7327 C.2       9 UNK         0.5031 
     58 O          32.8858    1.6778  -10.1236 O.2       9 UNK        -0.5390 
     59 N          31.3016    0.1734   -9.5308 N.am      10 UNK        -0.4204 
     60 CA         32.0811   -1.0453   -9.7713 C.3       10 UNK         0.0237 
     61 CB         31.1153   -2.1958  -10.1047 C.3       10 UNK        -0.1985 
     62 C          33.0301   -1.3517   -8.5945 C.2       10 UNK         0.4970 
     63 O          33.0510   -2.4693   -8.0774 O.2       10 UNK        -0.4914 
     64 N          33.7869   -0.3287   -8.1890 N.am      11 UNK        -0.4285 
     65 CA         34.6819   -0.3120   -7.0257 C.3       11 UNK         0.1007 
     66 C          36.1614   -0.6486   -7.3668 C.2       11 UNK         0.5703 
     67 N          36.5199   -0.8888   -8.6229 N.am      11 UNK        -0.7361 
     68 O          37.0003   -0.7100   -6.4710 O.2       11 UNK        -0.4986 
     69 C69        34.5586    1.0345   -6.2622 C.3       12 UNK        -0.0947 
     70 S70        32.8541    1.3555   -5.6853 S.3       12 UNK        -0.2240 
     71 C71        32.8988    0.5648   -4.0465 C.3       12 UNK         0.0194 
     72 H72        29.7411   -6.2442    1.2506 H         1 UNK         0.0906 
     73 H73        28.2754   -7.0982    0.7620 H         1 UNK         0.0906 
     74 H74        28.3371   -6.2691    2.3187 H         1 UNK         0.0906 
     75 H75        27.2224   -4.4088    2.2819 H         1 UNK         0.3140 
     76 H76        26.1025   -2.6751    1.8517 H         1 UNK         0.1085 
     77 H77        28.0715   -1.4640    2.0976 H         1 UNK         0.0836 
     78 H78        27.1972   -0.6665    0.8371 H         1 UNK         0.0836 
     79 H79        27.7581   -1.0370   -1.7497 H         1 UNK         0.0731 
     80 H80        28.7095    0.3209   -1.1934 H         1 UNK         0.0731 
     81 H81        30.8817    0.7932   -2.2179 H         1 UNK         0.1312 
     82 H82        32.3131   -1.7539   -5.3635 H         1 UNK         0.1406 
     83 H83        28.8389   -2.8624   -3.1071 H         1 UNK         0.1631 
     84 H84        29.8742   -4.4787   -4.5943 H         1 UNK         0.0717 
     85 H85        31.4603   -4.1593   -5.2452 H         1 UNK         0.0717 
     86 H86        27.4476   -4.0437   -6.5511 H         1 UNK         0.0934 
     87 H87        27.9190   -2.8855   -5.3459 H         1 UNK         0.0934 
     88 H88        27.5365   -2.2405   -8.3089 H         1 UNK         0.0739 
     89 H89        25.6122   -2.3385   -6.1745 H         1 UNK         0.3093 
     90 H90        23.1356   -0.3205   -7.7134 H         1 UNK         0.0818 
     91 H91        22.9275   -2.5178   -8.8838 H         1 UNK         0.0819 
     92 H92        23.2788   -3.3682   -7.3858 H         1 UNK         0.0819 
     93 H93        21.8082   -2.4056   -7.5369 H         1 UNK         0.0819 
     94 H94        23.1206   -1.9233   -5.3456 H         1 UNK         0.3041 
     95 H95        24.5253    0.5060   -3.1516 H         1 UNK         0.0784 
     96 H96        22.1570    1.2658   -3.4362 H         1 UNK         0.0793 
     97 H97        21.6107   -0.4057   -3.4385 H         1 UNK         0.0793 
     98 H98        22.3503    0.2853   -1.9934 H         1 UNK         0.0793 
     99 H99        23.3964   -1.9277   -2.4496 H         1 UNK         0.3024 
    100 H100       24.3747   -3.8848   -2.2864 H         1 UNK         0.1171 
    101 H101       27.0596   -4.3537   -3.6822 H         1 UNK         0.0786 
    102 H102       25.9735   -5.5735   -3.0327 H         1 UNK         0.0786 
    103 H103       25.4910   -4.6274   -4.4310 H         1 UNK         0.0786 
    104 H104       27.0485   -3.9454   -1.2807 H         1 UNK         0.2977 
    105 H105       27.0215   -0.3960   -5.2888 H         1 UNK         0.3127 
    106 H106       29.1553    1.4523   -5.5997 H         1 UNK         0.0770 
    107 H107       27.9126    2.7929   -3.9188 H         1 UNK         0.0814 
    108 H108       26.4752    1.8078   -4.1490 H         1 UNK         0.0814 
    109 H109       27.9305    1.0991   -3.4584 H         1 UNK         0.0814 
    110 H110       25.6907    1.6862   -6.6071 H         1 UNK         0.2983 
    111 H111       25.8417    4.2594   -7.7649 H         1 UNK         0.0947 
    112 H112       23.9443    1.9351   -8.3926 H         1 UNK         0.0806 
    113 H113       23.6857    3.6107   -8.8600 H         1 UNK         0.0806 
    114 H114       23.7005    3.1714   -7.1599 H         1 UNK         0.0806 
    115 H115       26.3930    1.0412   -9.2428 H         1 UNK         0.3000 
    116 H116       26.9554    2.0269  -11.8929 H         1 UNK         0.0850 
    117 H117       27.8419   -0.2889  -12.2295 H         1 UNK         0.0810 
    118 H118       26.2731   -0.3267  -11.4407 H         1 UNK         0.0810 
    119 H119       27.7402   -0.5935  -10.5003 H         1 UNK         0.0810 
    120 H120       28.7488    2.1774   -8.9842 H         1 UNK         0.3040 
    121 H121       30.7789    2.6845   -8.3354 H         1 UNK         0.0766 
    122 H122       31.2542    3.8559  -11.1285 H         1 UNK         0.0812 
    123 H123       32.1602    4.2286   -9.6701 H         1 UNK         0.0812 
    124 H124       30.4741    4.7032   -9.7924 H         1 UNK         0.0812 
    125 H125       30.3868    0.0507   -9.1010 H         1 UNK         0.3205 
    126 H126       32.7138   -0.8921  -10.6482 H         1 UNK         0.0754 
    127 H127       31.6494   -3.1353  -10.2524 H         1 UNK         0.0769 
    128 H128       30.5628   -1.9902  -11.0218 H         1 UNK         0.0769 
    129 H129       30.3870   -2.3491   -9.3104 H         1 UNK         0.0769 
    130 H130       33.7120    0.5405   -8.7069 H         1 UNK         0.2981 
    131 H131       34.3688   -1.1003   -6.3397 H         1 UNK         0.0541 
    132 H132       37.4809   -1.1124   -8.8286 H         1 UNK         0.3459 
    133 H133       35.8393   -0.8493   -9.3643 H         1 UNK         0.3459 
    134 H134       34.8551    1.8617   -6.9095 H         1 UNK         0.0612 
    135 H135       35.2350    1.0682   -5.4063 H         1 UNK         0.0612 
    136 H136       33.8156   -0.0134   -3.9249 H         1 UNK         0.0624 
    137 H137       32.9285    1.3457   -3.2852 H         1 UNK         0.0624 
@<TRIPOS>BOND
     1    1    2 1    
     2    1   72 1    
     3    1   73 1    
     4    1   74 1    
     5    2    3 2    
     6    2    4 am   BACKBONE|DICT|INTERRES
     7    4    5 1    
     8    4   75 1    
     9    5    6 1    
    10    5   35 1    
    11    5   76 1    
    12    6    7 1    
    13    6   77 1    
    14    6   78 1    
    15    7    8 1    
    16    8    9 1    
    17    8   79 1    
    18    8   80 1    
    19    9   10 ar   
    20    9   14 ar   
    21   10   11 ar   
    22   10   81 1    
    23   11   12 ar   
    24   11   71 1    
    25   12   13 ar   
    26   12   82 1    
    27   13   14 ar   
    28   13   15 1    
    29   14   83 1    
    30   15   16 1    
    31   15   84 1    
    32   15   85 1    
    33   16   17 1    
    34   17   18 1    
    35   17   86 1    
    36   17   87 1    
    37   18   19 1    
    38   18   37 1    
    39   18   88 1    
    40   19   20 am   BACKBONE|DICT|INTERRES
    41   19   89 1    
    42   20   21 2    
    43   20   22 1    
    44   22   23 1    
    45   22   24 1    
    46   22   90 1    
    47   23   91 1    
    48   23   92 1    
    49   23   93 1    
    50   24   25 am   BACKBONE|DICT|INTERRES
    51   24   94 1    
    52   25   26 2    
    53   25   27 1    
    54   27   28 1    
    55   27   29 1    
    56   27   95 1    
    57   28   96 1    
    58   28   97 1    
    59   28   98 1    
    60   29   30 am   BACKBONE|DICT|INTERRES
    61   29   99 1    
    62   30   31 2    
    63   30   32 1    
    64   32   33 1    
    65   32   34 1    
    66   32  100 1    
    67   33  101 1    
    68   33  102 1    
    69   33  103 1    
    70   34   35 am   BACKBONE|DICT|INTERRES
    71   34  104 1    
    72   35   36 2    
    73   37   38 2    
    74   37   39 am   BACKBONE|DICT|INTERRES
    75   39   40 1    
    76   39  105 1    
    77   40   41 1    
    78   40   42 1    
    79   40  106 1    
    80   41  107 1    
    81   41  108 1    
    82   41  109 1    
    83   42   43 2    
    84   42   44 am   BACKBONE|DICT|INTERRES
    85   44   45 1    
    86   44  110 1    
    87   45   46 1    
    88   45   47 1    
    89   45  111 1    
    90   46  112 1    
    91   46  113 1    
    92   46  114 1    
    93   47   48 2    
    94   47   49 am   BACKBONE|DICT|INTERRES
    95   49   50 1    
    96   49  115 1    
    97   50   51 1    
    98   50   52 1    
    99   50  116 1    
   100   51  117 1    
   101   51  118 1    
   102   51  119 1    
   103   52   53 2    
   104   52   54 am   BACKBONE|DICT|INTERRES
   105   54   55 1    
   106   54  120 1    
   107   55   56 1    
   108   55   57 1    
   109   55  121 1    
   110   56  122 1    
   111   56  123 1    
   112   56  124 1    
   113   57   58 2    
   114   57   59 am   BACKBONE|DICT|INTERRES
   115   59   60 1    
   116   59  125 1    
   117   60   61 1    
   118   60   62 1    
   119   60  126 1    
   120   61  127 1    
   121   61  128 1    
   122   61  129 1    
   123   62   63 2    
   124   62   64 am   BACKBONE|DICT|INTERRES
   125   64   65 1    
   126   64  130 1    
   127   65   66 1    
   128   65   69 1    
   129   65  131 1    
   130   66   67 am   BACKBONE|DICT|INTERRES
   131   66   68 2    
   132   67  132 1    
   133   67  133 1    
   134   69   70 1    
   135   69  134 1    
   136   69  135 1    
   137   70   71 1    
   138   71  136 1    
   139   71  137 1    
@<TRIPOS>SUBSTRUCTURE
     1 UNK         1 GROUP             0       ****    0 ROOT    
