@<TRIPOS>MOLECULE
3R137
137   139    1
SMALL
USER_CHARGES


@<TRIPOS>ATOM
      1 CA         29.5589    0.4763    2.2998 C.3       0 UNK        -0.2020 
      2 C          29.0008   -0.6674    1.4652 C.2       0 UNK         0.4855 
      3 O          28.3541   -1.5596    2.0159 O.2       0 UNK        -0.5197 
      4 N          29.2537   -0.6395    0.1485 N.am      1 UNK        -0.4892 
      5 CA         28.8019   -1.6134   -0.8599 C.3       1 UNK         0.0835 
      6 C6         29.3211   -3.0653   -0.6088 C.3       12 UNK        -0.0855 
      7 S7         31.1309   -3.1651   -0.3762 S.3       12 UNK        -0.2931 
      8 C8         31.6870   -3.8422   -1.9784 C.3       12 UNK         0.0378 
      9 C9         31.3457   -2.9412   -3.1604 C.ar      12 UNK        -0.0802 
     10 C10        31.6345   -1.5737   -3.1175 C.ar      12 UNK        -0.0944 
     11 C11        31.3046   -0.7408   -4.1882 C.ar      12 UNK        -0.0787 
     12 C12        30.6968   -1.2907   -5.3219 C.ar      12 UNK        -0.0862 
     13 C13        30.4530   -2.6657   -5.4037 C.ar      12 UNK        -0.0733 
     14 C14        30.7677   -3.4830   -4.3133 C.ar      12 UNK        -0.0832 
     15 C15        29.9362   -3.2740   -6.7026 C.3       12 UNK         0.0240 
     16 S16        28.3964   -4.2307   -6.5205 S.3       12 UNK        -0.2522 
     17 C17        27.1946   -2.9696   -5.9955 C.3       12 UNK        -0.0967 
     18 CA         26.8083   -1.9678   -7.1230 C.3       5 UNK         0.0660 
     19 N          25.3561   -1.7817   -7.2186 N.am      5 UNK        -0.4015 
     20 C          24.7038   -1.0130   -8.1023 C.2       4 UNK         0.4946 
     21 O          25.2598   -0.3833   -9.0004 O.2       4 UNK        -0.5353 
     22 CA         23.1816   -0.8553   -7.9216 C.3       4 UNK         0.0277 
     23 CB         22.4098   -2.0293   -8.5564 C.3       4 UNK        -0.1981 
     24 N          22.7901   -0.6044   -6.5249 N.am      4 UNK        -0.4209 
     25 C          22.8561   -1.4534   -5.4916 C.2       3 UNK         0.4942 
     26 O          23.1312   -2.6512   -5.6029 O.2       3 UNK        -0.5208 
     27 CA         22.6425   -0.8450   -4.0950 C.3       3 UNK         0.0250 
     28 CB         21.1534   -0.8730   -3.7156 C.3       3 UNK        -0.1990 
     29 N          23.4138   -1.5627   -3.0765 N.am      3 UNK        -0.4232 
     30 C          24.7483   -1.6963   -3.0681 C.2       2 UNK         0.4993 
     31 O          25.5089   -1.1196   -3.8538 O.2       2 UNK        -0.5286 
     32 CA         25.2970   -2.7099   -2.0499 C.3       2 UNK         0.0209 
     33 CB         25.0555   -4.1475   -2.5434 C.3       2 UNK        -0.1931 
     34 N          26.7267   -2.5492   -1.7876 N.am      2 UNK        -0.4546 
     35 C          27.2685   -1.5533   -1.0755 C.2       1 UNK         0.5154 
     36 O          26.6047   -0.6227   -0.6082 O.2       1 UNK        -0.5181 
     37 C          27.5330   -0.6208   -6.9407 C.2       5 UNK         0.5014 
     38 O          28.3840   -0.2613   -7.7571 O.2       5 UNK        -0.5248 
     39 N          27.1513    0.1145   -5.8871 N.am      6 UNK        -0.4434 
     40 CA         27.6896    1.4366   -5.5641 C.3       6 UNK         0.0363 
     41 CB         27.2776    1.8105   -4.1320 C.3       6 UNK        -0.1936 
     42 C          27.2713    2.5344   -6.5597 C.2       6 UNK         0.5081 
     43 O          27.9908    3.5239   -6.6892 O.2       6 UNK        -0.5248 
     44 N          26.1372    2.3458   -7.2518 N.am      7 UNK        -0.4718 
     45 CA         25.6572    3.2461   -8.3057 C.3       7 UNK         0.0273 
     46 CB         24.1599    3.0140   -8.5611 C.3       7 UNK        -0.1935 
     47 C          26.4685    3.0891   -9.6021 C.2       7 UNK         0.5018 
     48 O          26.8348    4.0954  -10.2102 O.2       7 UNK        -0.5186 
     49 N          26.7644    1.8361   -9.9810 N.am      8 UNK        -0.4240 
     50 CA         27.6851    1.4891  -11.0685 C.3       8 UNK         0.0235 
     51 CB         27.5495   -0.0082  -11.3903 C.3       8 UNK        -0.2000 
     52 C          29.1479    1.8332  -10.7352 C.2       8 UNK         0.4941 
     53 O          29.9247    2.1133  -11.6486 O.2       8 UNK        -0.5273 
     54 N          29.4794    1.8078   -9.4360 N.am      9 UNK        -0.4262 
     55 CA         30.7736    2.1142   -8.8244 C.3       9 UNK         0.0264 
     56 CB         31.1820    3.5810   -9.0746 C.3       9 UNK        -0.1955 
     57 C          31.8672    1.1023   -9.2056 C.2       9 UNK         0.5031 
     58 O          33.0364    1.4720   -9.3305 O.2       9 UNK        -0.5390 
     59 N          31.4855   -0.1765   -9.3313 N.am      10 UNK        -0.4204 
     60 CA         32.3853   -1.3071   -9.5932 C.3       10 UNK         0.0237 
     61 CB         31.5901   -2.4195  -10.3033 C.3       10 UNK        -0.1985 
     62 C          33.0794   -1.7956   -8.3028 C.2       10 UNK         0.4970 
     63 O          33.0954   -2.9956   -8.0251 O.2       10 UNK        -0.4914 
     64 N          33.5907   -0.8451   -7.5151 N.am      11 UNK        -0.4285 
     65 CA         34.1223   -1.0407   -6.1623 C.3       11 UNK         0.1007 
     66 C          35.4990   -1.7557   -6.1463 C.2       11 UNK         0.5703 
     67 N          35.8168   -2.4604   -5.0685 N.am      11 UNK        -0.7361 
     68 O          36.2955   -1.6478   -7.0776 O.2       11 UNK        -0.4986 
     69 C69        34.1662    0.2949   -5.3644 C.3       12 UNK        -0.0947 
     70 S70        32.6506    1.3112   -5.5180 S.3       12 UNK        -0.2240 
     71 C71        31.6328    0.7449   -4.1179 C.3       12 UNK         0.0194 
     72 H72        30.2262    0.0880    3.0689 H         1 UNK         0.0906 
     73 H73        28.7473    1.0122    2.7915 H         1 UNK         0.0906 
     74 H74        30.1186    1.1897    1.6951 H         1 UNK         0.0906 
     75 H75        29.7722    0.1424   -0.2255 H         1 UNK         0.3140 
     76 H76        29.2243   -1.2717   -1.8051 H         1 UNK         0.1085 
     77 H77        29.0553   -3.7266   -1.4344 H         1 UNK         0.0836 
     78 H78        28.8463   -3.4932    0.2757 H         1 UNK         0.0836 
     79 H79        32.7685   -3.9794   -1.9450 H         1 UNK         0.0731 
     80 H80        31.2539   -4.8354   -2.1080 H         1 UNK         0.0731 
     81 H81        32.1084   -1.1568   -2.2394 H         1 UNK         0.1312 
     82 H82        30.4693   -0.6506   -6.1626 H         1 UNK         0.1406 
     83 H83        30.5785   -4.5463   -4.3754 H         1 UNK         0.1631 
     84 H84        30.7035   -3.9427   -7.0942 H         1 UNK         0.0717 
     85 H85        29.7949   -2.5082   -7.4646 H         1 UNK         0.0717 
     86 H86        26.3130   -3.5209   -5.6652 H         1 UNK         0.0934 
     87 H87        27.5660   -2.4806   -5.0920 H         1 UNK         0.0934 
     88 H88        27.1194   -2.3722   -8.0885 H         1 UNK         0.0739 
     89 H89        24.7880   -2.2480   -6.5169 H         1 UNK         0.3093 
     90 H90        22.8908    0.0416   -8.4690 H         1 UNK         0.0818 
     91 H91        22.6139   -2.0892   -9.6262 H         1 UNK         0.0819 
     92 H92        22.6866   -2.9915   -8.1252 H         1 UNK         0.0819 
     93 H93        21.3333   -1.9060   -8.4386 H         1 UNK         0.0819 
     94 H94        22.5467    0.3557   -6.3211 H         1 UNK         0.3041 
     95 H95        22.9892    0.1906   -4.1046 H         1 UNK         0.0784 
     96 H96        20.5534   -0.3194   -4.4393 H         1 UNK         0.0793 
     97 H97        20.7646   -1.8918   -3.6829 H         1 UNK         0.0793 
     98 H98        20.9827   -0.4164   -2.7404 H         1 UNK         0.0793 
     99 H99        22.8746   -2.1048   -2.4175 H         1 UNK         0.3024 
    100 H100       24.7625   -2.5655   -1.1078 H         1 UNK         0.1171 
    101 H101       25.5867   -4.3498   -3.4740 H         1 UNK         0.0786 
    102 H102       25.3817   -4.8807   -1.8053 H         1 UNK         0.0786 
    103 H103       23.9966   -4.3318   -2.7303 H         1 UNK         0.0786 
    104 H104       27.3333   -3.2499   -2.1853 H         1 UNK         0.2977 
    105 H105       26.4764   -0.2787   -5.2311 H         1 UNK         0.3127 
    106 H106       28.7788    1.3706   -5.5989 H         1 UNK         0.0770 
    107 H107       27.6875    2.7804   -3.8469 H         1 UNK         0.0814 
    108 H108       26.1934    1.8679   -4.0268 H         1 UNK         0.0814 
    109 H109       27.6433    1.0788   -3.4109 H         1 UNK         0.0814 
    110 H110       25.6209    1.4926   -7.1007 H         1 UNK         0.2983 
    111 H111       25.7819    4.2743   -7.9577 H         1 UNK         0.0947 
    112 H112       23.9695    2.0348   -8.9979 H         1 UNK         0.0806 
    113 H113       23.7700    3.7563   -9.2589 H         1 UNK         0.0806 
    114 H114       23.5788    3.0973   -7.6427 H         1 UNK         0.0806 
    115 H115       26.3527    1.0565   -9.4712 H         1 UNK         0.3000 
    116 H116       27.4007    2.0622  -11.9535 H         1 UNK         0.0850 
    117 H117       28.2129   -0.2954  -12.2073 H         1 UNK         0.0810 
    118 H118       26.5324   -0.2568  -11.6940 H         1 UNK         0.0810 
    119 H119       27.8003   -0.6299  -10.5295 H         1 UNK         0.0810 
    120 H120       28.7780    1.4528   -8.7943 H         1 UNK         0.3040 
    121 H121       30.6228    2.0000   -7.7500 H         1 UNK         0.0766 
    122 H122       32.0665    3.8431   -8.4927 H         1 UNK         0.0812 
    123 H123       30.3869    4.2668   -8.7813 H         1 UNK         0.0812 
    124 H124       31.4168    3.7645  -10.1233 H         1 UNK         0.0812 
    125 H125       30.5123   -0.3953   -9.1632 H         1 UNK         0.3205 
    126 H126       33.1746   -0.9804  -10.2735 H         1 UNK         0.0754 
    127 H127       32.2378   -3.2566  -10.5672 H         1 UNK         0.0769 
    128 H128       31.1425   -2.0562  -11.2287 H         1 UNK         0.0769 
    129 H129       30.7893   -2.8114   -9.6760 H         1 UNK         0.0769 
    130 H130       33.5699    0.1106   -7.8500 H         1 UNK         0.2981 
    131 H131       33.4284   -1.7098   -5.6532 H         1 UNK         0.0541 
    132 H132       36.7127   -2.9208   -5.0313 H         1 UNK         0.3459 
    133 H133       35.1763   -2.5469   -4.2951 H         1 UNK         0.3459 
    134 H134       34.9969    0.9114   -5.7124 H         1 UNK         0.0612 
    135 H135       34.3560    0.1007   -4.3074 H         1 UNK         0.0612 
    136 H136       30.7023    1.3129   -4.1058 H         1 UNK         0.0624 
    137 H137       32.1533    0.9878   -3.1902 H         1 UNK         0.0624 
@<TRIPOS>BOND
     1    1    2 1    
     2    1   72 1    
     3    1   73 1    
     4    1   74 1    
     5    2    3 2    
     6    2    4 am   BACKBONE|DICT|INTERRES
     7    4    5 1    
     8    4   75 1    
     9    5    6 1    
    10    5   35 1    
    11    5   76 1    
    12    6    7 1    
    13    6   77 1    
    14    6   78 1    
    15    7    8 1    
    16    8    9 1    
    17    8   79 1    
    18    8   80 1    
    19    9   10 ar   
    20    9   14 ar   
    21   10   11 ar   
    22   10   81 1    
    23   11   12 ar   
    24   11   71 1    
    25   12   13 ar   
    26   12   82 1    
    27   13   14 ar   
    28   13   15 1    
    29   14   83 1    
    30   15   16 1    
    31   15   84 1    
    32   15   85 1    
    33   16   17 1    
    34   17   18 1    
    35   17   86 1    
    36   17   87 1    
    37   18   19 1    
    38   18   37 1    
    39   18   88 1    
    40   19   20 am   BACKBONE|DICT|INTERRES
    41   19   89 1    
    42   20   21 2    
    43   20   22 1    
    44   22   23 1    
    45   22   24 1    
    46   22   90 1    
    47   23   91 1    
    48   23   92 1    
    49   23   93 1    
    50   24   25 am   BACKBONE|DICT|INTERRES
    51   24   94 1    
    52   25   26 2    
    53   25   27 1    
    54   27   28 1    
    55   27   29 1    
    56   27   95 1    
    57   28   96 1    
    58   28   97 1    
    59   28   98 1    
    60   29   30 am   BACKBONE|DICT|INTERRES
    61   29   99 1    
    62   30   31 2    
    63   30   32 1    
    64   32   33 1    
    65   32   34 1    
    66   32  100 1    
    67   33  101 1    
    68   33  102 1    
    69   33  103 1    
    70   34   35 am   BACKBONE|DICT|INTERRES
    71   34  104 1    
    72   35   36 2    
    73   37   38 2    
    74   37   39 am   BACKBONE|DICT|INTERRES
    75   39   40 1    
    76   39  105 1    
    77   40   41 1    
    78   40   42 1    
    79   40  106 1    
    80   41  107 1    
    81   41  108 1    
    82   41  109 1    
    83   42   43 2    
    84   42   44 am   BACKBONE|DICT|INTERRES
    85   44   45 1    
    86   44  110 1    
    87   45   46 1    
    88   45   47 1    
    89   45  111 1    
    90   46  112 1    
    91   46  113 1    
    92   46  114 1    
    93   47   48 2    
    94   47   49 am   BACKBONE|DICT|INTERRES
    95   49   50 1    
    96   49  115 1    
    97   50   51 1    
    98   50   52 1    
    99   50  116 1    
   100   51  117 1    
   101   51  118 1    
   102   51  119 1    
   103   52   53 2    
   104   52   54 am   BACKBONE|DICT|INTERRES
   105   54   55 1    
   106   54  120 1    
   107   55   56 1    
   108   55   57 1    
   109   55  121 1    
   110   56  122 1    
   111   56  123 1    
   112   56  124 1    
   113   57   58 2    
   114   57   59 am   BACKBONE|DICT|INTERRES
   115   59   60 1    
   116   59  125 1    
   117   60   61 1    
   118   60   62 1    
   119   60  126 1    
   120   61  127 1    
   121   61  128 1    
   122   61  129 1    
   123   62   63 2    
   124   62   64 am   BACKBONE|DICT|INTERRES
   125   64   65 1    
   126   64  130 1    
   127   65   66 1    
   128   65   69 1    
   129   65  131 1    
   130   66   67 am   BACKBONE|DICT|INTERRES
   131   66   68 2    
   132   67  132 1    
   133   67  133 1    
   134   69   70 1    
   135   69  134 1    
   136   69  135 1    
   137   70   71 1    
   138   71  136 1    
   139   71  137 1    
@<TRIPOS>SUBSTRUCTURE
     1 UNK         1 GROUP             0       ****    0 ROOT    
