@<TRIPOS>MOLECULE
3R137
137   139    1
SMALL
USER_CHARGES


@<TRIPOS>ATOM
      1 CA         28.0778   -5.6571    1.2088 C.3       0 UNK        -0.2020 
      2 C          28.1588   -4.1772    1.5525 C.2       0 UNK         0.4855 
      3 O          29.0745   -3.7644    2.2646 O.2       0 UNK        -0.5197 
      4 N          27.2086   -3.3798    1.0533 N.am      1 UNK        -0.4892 
      5 CA         27.1239   -1.9320    1.2839 C.3       1 UNK         0.0835 
      6 C6         28.2166   -1.1157    0.5421 C.3       12 UNK        -0.0855 
      7 S7         28.1980   -1.3132   -1.2742 S.3       12 UNK        -0.2931 
      8 C8         29.7235   -2.2630   -1.5446 C.3       12 UNK         0.0378 
      9 C9         30.0290   -2.3959   -3.0284 C.ar      12 UNK        -0.0802 
     10 C10        30.9464   -1.5356   -3.6397 C.ar      12 UNK        -0.0944 
     11 C11        31.2427   -1.6648   -5.0002 C.ar      12 UNK        -0.0787 
     12 C12        30.6126   -2.6614   -5.7508 C.ar      12 UNK        -0.0862 
     13 C13        29.6943   -3.5267   -5.1498 C.ar      12 UNK        -0.0733 
     14 C14        29.4042   -3.3880   -3.7891 C.ar      12 UNK        -0.0832 
     15 C15        29.0294   -4.6282   -5.9581 C.3       12 UNK         0.0240 
     16 S16        27.4011   -4.1138   -6.5799 S.3       12 UNK        -0.2522 
     17 C17        27.8310   -3.2024   -8.1032 C.3       12 UNK        -0.0967 
     18 CA         27.2774   -1.7571   -8.1628 C.3       5 UNK         0.0660 
     19 N          25.8675   -1.6734   -7.7719 N.am      5 UNK        -0.4015 
     20 C          25.0864   -0.5921   -7.8940 C.2       4 UNK         0.4946 
     21 O          25.4560    0.4554   -8.4274 O.2       4 UNK        -0.5353 
     22 CA         23.6795   -0.6674   -7.2778 C.3       4 UNK         0.0277 
     23 CB         22.6419   -0.9893   -8.3647 C.3       4 UNK        -0.1981 
     24 N          23.5452   -1.6271   -6.1723 N.am      4 UNK        -0.4209 
     25 C          24.2140   -1.5718   -5.0111 C.2       3 UNK         0.4942 
     26 O          25.0946   -0.7461   -4.7597 O.2       3 UNK        -0.5208 
     27 CA         23.8625   -2.6403   -3.9718 C.3       3 UNK         0.0250 
     28 CB         24.7659   -3.8759   -4.1210 C.3       3 UNK        -0.1990 
     29 N          24.0244   -2.0802   -2.6319 N.am      3 UNK        -0.4232 
     30 C          23.2369   -2.3668   -1.5885 C.2       2 UNK         0.4993 
     31 O          22.3022   -3.1690   -1.6411 O.2       2 UNK        -0.5286 
     32 CA         23.5845   -1.6827   -0.2585 C.3       2 UNK         0.0209 
     33 CB         22.6004   -2.0451    0.8769 C.3       2 UNK        -0.1931 
     34 N          24.9536   -2.0415    0.1121 N.am      2 UNK        -0.4546 
     35 C          25.7081   -1.3880    1.0077 C.2       1 UNK         0.5154 
     36 O          25.3201   -0.3935    1.6233 O.2       1 UNK        -0.5181 
     37 C          28.1829   -0.7300   -7.4495 C.2       5 UNK         0.5014 
     38 O          29.1902   -0.3308   -8.0363 O.2       5 UNK        -0.5248 
     39 N          27.7772   -0.2332   -6.2705 N.am      6 UNK        -0.4434 
     40 CA         28.4241    0.8871   -5.5798 C.3       6 UNK         0.0363 
     41 CB         27.7462    1.1000   -4.2203 C.3       6 UNK        -0.1936 
     42 C          28.4214    2.2030   -6.3832 C.2       6 UNK         0.5081 
     43 O          29.2807    3.0491   -6.1387 O.2       6 UNK        -0.5248 
     44 N          27.4785    2.3486   -7.3247 N.am      7 UNK        -0.4718 
     45 CA         27.4168    3.4501   -8.2828 C.3       7 UNK         0.0273 
     46 CB         26.0034    4.0557   -8.2693 C.3       7 UNK        -0.1935 
     47 C          27.7850    2.9751   -9.6966 C.2       7 UNK         0.5018 
     48 O          28.5306    3.6724  -10.3841 O.2       7 UNK        -0.5186 
     49 N          27.2458    1.8204  -10.1187 N.am      8 UNK        -0.4240 
     50 CA         27.3758    1.3047  -11.4850 C.3       8 UNK         0.0235 
     51 CB         26.2946    0.2437  -11.7494 C.3       8 UNK        -0.2000 
     52 C          28.7753    0.7646  -11.8244 C.2       8 UNK         0.4941 
     53 O          29.2491    1.0071  -12.9353 O.2       8 UNK        -0.5273 
     54 N          29.4110    0.0517  -10.8835 N.am      9 UNK        -0.4262 
     55 CA         30.7909   -0.4298  -11.0133 C.3       9 UNK         0.0264 
     56 CB         30.9293   -1.8319  -10.3942 C.3       9 UNK        -0.1955 
     57 C          31.7730    0.5531  -10.3604 C.2       9 UNK         0.5031 
     58 O          32.8930    0.6975  -10.8507 O.2       9 UNK        -0.5390 
     59 N          31.3421    1.2067   -9.2703 N.am      10 UNK        -0.4204 
     60 CA         31.9909    2.2994   -8.5284 C.3       10 UNK         0.0237 
     61 CB         32.2274    3.5233   -9.4350 C.3       10 UNK        -0.1985 
     62 C          33.2726    1.9264   -7.7604 C.2       10 UNK         0.4970 
     63 O          33.5794    2.5964   -6.7741 O.2       10 UNK        -0.4914 
     64 N          33.9794    0.8753   -8.1944 N.am      11 UNK        -0.4285 
     65 CA         35.2086    0.3321   -7.5897 C.3       11 UNK         0.1007 
     66 C          36.4500    1.2714   -7.7018 C.2       11 UNK         0.5703 
     67 N          36.4493    2.2647   -8.5836 N.am      11 UNK        -0.7361 
     68 O          37.4463    1.0811   -7.0075 O.2       11 UNK        -0.4986 
     69 C69        34.9864   -0.2100   -6.1460 C.3       12 UNK        -0.0947 
     70 S70        33.7907   -1.5864   -6.0630 S.3       12 UNK        -0.2240 
     71 C71        32.2378   -0.7251   -5.6616 C.3       12 UNK         0.0194 
     72 H72        27.2287   -5.8826    0.5639 H         1 UNK         0.0906 
     73 H73        28.9857   -5.9718    0.6946 H         1 UNK         0.0906 
     74 H74        27.9793   -6.2487    2.1187 H         1 UNK         0.0906 
     75 H75        26.4520   -3.7894    0.5271 H         1 UNK         0.3140 
     76 H76        27.2787   -1.7771    2.3545 H         1 UNK         0.1085 
     77 H77        29.2005   -1.3865    0.9272 H         1 UNK         0.0836 
     78 H78        28.1096   -0.0528    0.7673 H         1 UNK         0.0836 
     79 H79        29.6218   -3.2508   -1.0928 H         1 UNK         0.0731 
     80 H80        30.5542   -1.7730   -1.0342 H         1 UNK         0.0731 
     81 H81        31.4306   -0.7658   -3.0545 H         1 UNK         0.1312 
     82 H82        30.8448   -2.7623   -6.8019 H         1 UNK         0.1406 
     83 H83        28.6912   -4.0530   -3.3206 H         1 UNK         0.1631 
     84 H84        28.8970   -5.5101   -5.3295 H         1 UNK         0.0717 
     85 H85        29.6664   -4.9442   -6.7858 H         1 UNK         0.0717 
     86 H86        28.9098   -3.2148   -8.2666 H         1 UNK         0.0934 
     87 H87        27.4154   -3.7724   -8.9358 H         1 UNK         0.0934 
     88 H88        27.3090   -1.4687   -9.2133 H         1 UNK         0.0739 
     89 H89        25.4957   -2.4874   -7.3041 H         1 UNK         0.3093 
     90 H90        23.4575    0.3238   -6.8768 H         1 UNK         0.0818 
     91 H91        21.6259   -0.9367   -7.9731 H         1 UNK         0.0819 
     92 H92        22.7053   -0.2762   -9.1882 H         1 UNK         0.0819 
     93 H93        22.7906   -1.9850   -8.7846 H         1 UNK         0.0819 
     94 H94        22.8516   -2.3519   -6.2936 H         1 UNK         0.3041 
     95 H95        22.8222   -2.9351   -4.1274 H         1 UNK         0.0784 
     96 H96        24.6669   -4.3188   -5.1126 H         1 UNK         0.0793 
     97 H97        25.8173   -3.6237   -3.9752 H         1 UNK         0.0793 
     98 H98        24.5046   -4.6473   -3.3965 H         1 UNK         0.0793 
     99 H99        24.7505   -1.3787   -2.5490 H         1 UNK         0.3024 
    100 H100       23.5327   -0.6049   -0.4302 H         1 UNK         0.1171 
    101 H101       22.8138   -1.4882    1.7890 H         1 UNK         0.0786 
    102 H102       21.5734   -1.8097    0.5942 H         1 UNK         0.0786 
    103 H103       22.6388   -3.1080    1.1177 H         1 UNK         0.0786 
    104 H104       25.3613   -2.7909   -0.4276 H         1 UNK         0.2977 
    105 H105       26.9247   -0.5870   -5.8490 H         1 UNK         0.3127 
    106 H106       29.4651    0.6094   -5.4067 H         1 UNK         0.0770 
    107 H107       26.7179    1.4462   -4.3314 H         1 UNK         0.0814 
    108 H108       27.7247    0.1752   -3.6471 H         1 UNK         0.0814 
    109 H109       28.2818    1.8416   -3.6265 H         1 UNK         0.0814 
    110 H110       26.8070    1.6001   -7.4593 H         1 UNK         0.2983 
    111 H111       28.1229    4.2369   -8.0076 H         1 UNK         0.0947 
    112 H112       25.7566    4.4570   -7.2863 H         1 UNK         0.0806 
    113 H113       25.2419    3.3192   -8.5297 H         1 UNK         0.0806 
    114 H114       25.9232    4.8763   -8.9836 H         1 UNK         0.0806 
    115 H115       26.6019    1.3260   -9.5030 H         1 UNK         0.3000 
    116 H116       27.1836    2.1380  -12.1649 H         1 UNK         0.0850 
    117 H117       26.3351   -0.1025  -12.7831 H         1 UNK         0.0810 
    118 H118       25.2955    0.6471  -11.5831 H         1 UNK         0.0810 
    119 H119       26.4100   -0.6306  -11.1113 H         1 UNK         0.0810 
    120 H120       28.9817   -0.0655   -9.9730 H         1 UNK         0.3040 
    121 H121       31.0558   -0.5110  -12.0698 H         1 UNK         0.0766 
    122 H122       30.8161   -1.8214   -9.3108 H         1 UNK         0.0812 
    123 H123       31.9152   -2.2478  -10.6058 H         1 UNK         0.0812 
    124 H124       30.1924   -2.5226  -10.8041 H         1 UNK         0.0812 
    125 H125       30.4605    0.8903   -8.8754 H         1 UNK         0.3205 
    126 H126       31.2675    2.5963   -7.7696 H         1 UNK         0.0754 
    127 H127       32.6036    4.3689   -8.8575 H         1 UNK         0.0769 
    128 H128       31.3021    3.8451   -9.9130 H         1 UNK         0.0769 
    129 H129       32.9561    3.3171  -10.2194 H         1 UNK         0.0769 
    130 H130       33.6923    0.4584   -9.0734 H         1 UNK         0.2981 
    131 H131       35.4726   -0.5240   -8.2112 H         1 UNK         0.0541 
    132 H132       35.6487    2.4223   -9.1741 H         1 UNK         0.3459 
    133 H133       37.2595    2.8593   -8.6582 H         1 UNK         0.3459 
    134 H134       34.6898    0.5872   -5.4637 H         1 UNK         0.0612 
    135 H135       35.9214   -0.6039   -5.7444 H         1 UNK         0.0612 
    136 H136       32.4411    0.1289   -5.0140 H         1 UNK         0.0624 
    137 H137       31.7987   -0.3261   -6.5765 H         1 UNK         0.0624 
@<TRIPOS>BOND
     1    1    2 1    
     2    1   72 1    
     3    1   73 1    
     4    1   74 1    
     5    2    3 2    
     6    2    4 am   BACKBONE|DICT|INTERRES
     7    4    5 1    
     8    4   75 1    
     9    5    6 1    
    10    5   35 1    
    11    5   76 1    
    12    6    7 1    
    13    6   77 1    
    14    6   78 1    
    15    7    8 1    
    16    8    9 1    
    17    8   79 1    
    18    8   80 1    
    19    9   10 ar   
    20    9   14 ar   
    21   10   11 ar   
    22   10   81 1    
    23   11   12 ar   
    24   11   71 1    
    25   12   13 ar   
    26   12   82 1    
    27   13   14 ar   
    28   13   15 1    
    29   14   83 1    
    30   15   16 1    
    31   15   84 1    
    32   15   85 1    
    33   16   17 1    
    34   17   18 1    
    35   17   86 1    
    36   17   87 1    
    37   18   19 1    
    38   18   37 1    
    39   18   88 1    
    40   19   20 am   BACKBONE|DICT|INTERRES
    41   19   89 1    
    42   20   21 2    
    43   20   22 1    
    44   22   23 1    
    45   22   24 1    
    46   22   90 1    
    47   23   91 1    
    48   23   92 1    
    49   23   93 1    
    50   24   25 am   BACKBONE|DICT|INTERRES
    51   24   94 1    
    52   25   26 2    
    53   25   27 1    
    54   27   28 1    
    55   27   29 1    
    56   27   95 1    
    57   28   96 1    
    58   28   97 1    
    59   28   98 1    
    60   29   30 am   BACKBONE|DICT|INTERRES
    61   29   99 1    
    62   30   31 2    
    63   30   32 1    
    64   32   33 1    
    65   32   34 1    
    66   32  100 1    
    67   33  101 1    
    68   33  102 1    
    69   33  103 1    
    70   34   35 am   BACKBONE|DICT|INTERRES
    71   34  104 1    
    72   35   36 2    
    73   37   38 2    
    74   37   39 am   BACKBONE|DICT|INTERRES
    75   39   40 1    
    76   39  105 1    
    77   40   41 1    
    78   40   42 1    
    79   40  106 1    
    80   41  107 1    
    81   41  108 1    
    82   41  109 1    
    83   42   43 2    
    84   42   44 am   BACKBONE|DICT|INTERRES
    85   44   45 1    
    86   44  110 1    
    87   45   46 1    
    88   45   47 1    
    89   45  111 1    
    90   46  112 1    
    91   46  113 1    
    92   46  114 1    
    93   47   48 2    
    94   47   49 am   BACKBONE|DICT|INTERRES
    95   49   50 1    
    96   49  115 1    
    97   50   51 1    
    98   50   52 1    
    99   50  116 1    
   100   51  117 1    
   101   51  118 1    
   102   51  119 1    
   103   52   53 2    
   104   52   54 am   BACKBONE|DICT|INTERRES
   105   54   55 1    
   106   54  120 1    
   107   55   56 1    
   108   55   57 1    
   109   55  121 1    
   110   56  122 1    
   111   56  123 1    
   112   56  124 1    
   113   57   58 2    
   114   57   59 am   BACKBONE|DICT|INTERRES
   115   59   60 1    
   116   59  125 1    
   117   60   61 1    
   118   60   62 1    
   119   60  126 1    
   120   61  127 1    
   121   61  128 1    
   122   61  129 1    
   123   62   63 2    
   124   62   64 am   BACKBONE|DICT|INTERRES
   125   64   65 1    
   126   64  130 1    
   127   65   66 1    
   128   65   69 1    
   129   65  131 1    
   130   66   67 am   BACKBONE|DICT|INTERRES
   131   66   68 2    
   132   67  132 1    
   133   67  133 1    
   134   69   70 1    
   135   69  134 1    
   136   69  135 1    
   137   70   71 1    
   138   71  136 1    
   139   71  137 1    
@<TRIPOS>SUBSTRUCTURE
     1 UNK         1 GROUP             0       ****    0 ROOT    
