@<TRIPOS>MOLECULE
3R137
137   139    1
SMALL
USER_CHARGES


@<TRIPOS>ATOM
      1 CA         28.5218   -3.0619    2.4511 C.3       0 UNK        -0.2020 
      2 C          28.1943   -1.8487    1.5936 C.2       0 UNK         0.4855 
      3 O          27.4679   -0.9618    2.0420 O.2       0 UNK        -0.5197 
      4 N          28.7315   -1.8036    0.3669 N.am      1 UNK        -0.4892 
      5 CA         28.5280   -0.7278   -0.6132 C.3       1 UNK         0.0835 
      6 C6         29.4869   -0.8266   -1.8327 C.3       12 UNK        -0.0855 
      7 S7         31.2521   -1.0416   -1.4024 S.3       12 UNK        -0.2931 
      8 C8         31.4582   -2.8554   -1.2859 C.3       12 UNK         0.0378 
      9 C9         31.4147   -3.5620   -2.6346 C.ar      12 UNK        -0.0802 
     10 C10        32.6019   -3.8504   -3.3140 C.ar      12 UNK        -0.0944 
     11 C11        32.5764   -4.5537   -4.5223 C.ar      12 UNK        -0.0787 
     12 C12        31.3485   -4.9416   -5.0683 C.ar      12 UNK        -0.0862 
     13 C13        30.1528   -4.6487   -4.4046 C.ar      12 UNK        -0.0733 
     14 C14        30.1962   -3.9827   -3.1774 C.ar      12 UNK        -0.0832 
     15 C15        28.8135   -5.0718   -4.9945 C.3       12 UNK         0.0240 
     16 S16        28.4284   -4.1992   -6.5459 S.3       12 UNK        -0.2522 
     17 C17        28.3894   -2.4522   -6.0208 C.3       12 UNK        -0.0967 
     18 CA         27.5479   -1.6048   -7.0061 C.3       5 UNK         0.0660 
     19 N          26.1152   -1.8968   -6.9132 N.am      5 UNK        -0.4015 
     20 C          25.2049   -1.5346   -7.8270 C.2       4 UNK         0.4946 
     21 O          25.4732   -0.9255   -8.8632 O.2       4 UNK        -0.5353 
     22 CA         23.7405   -1.8790   -7.5078 C.3       4 UNK         0.0277 
     23 CB         23.4689   -3.3765   -7.7261 C.3       4 UNK        -0.1981 
     24 N          23.3521   -1.4959   -6.1471 N.am      4 UNK        -0.4209 
     25 C          23.3093   -0.2298   -5.7086 C.2       3 UNK         0.4942 
     26 O          23.5760    0.7456   -6.4067 O.2       3 UNK        -0.5208 
     27 CA         22.9354   -0.0013   -4.2364 C.3       3 UNK         0.0250 
     28 CB         21.4073    0.0132   -4.0692 C.3       3 UNK        -0.1990 
     29 N          23.5236   -0.9450   -3.2800 N.am      3 UNK        -0.4232 
     30 C          24.8193   -1.2746   -3.1779 C.2       2 UNK         0.4993 
     31 O          25.6882   -0.9681   -3.9989 O.2       2 UNK        -0.5286 
     32 CA         25.1928   -2.1305   -1.9565 C.3       2 UNK         0.0209 
     33 CB         25.0666   -3.6232   -2.3039 C.3       2 UNK        -0.1931 
     34 N          26.5479   -1.8776   -1.4599 N.am      2 UNK        -0.4546 
     35 C          27.0636   -0.6917   -1.0956 C.2       1 UNK         0.5154 
     36 O          26.4423    0.3722   -1.0969 O.2       1 UNK        -0.5181 
     37 C          27.8249   -0.0998   -6.8446 C.2       5 UNK         0.5014 
     38 O          28.6626    0.4331   -7.5734 O.2       5 UNK        -0.5248 
     39 N          27.0964    0.5648   -5.9358 N.am      6 UNK        -0.4434 
     40 CA         27.1516    2.0121   -5.7261 C.3       6 UNK         0.0363 
     41 CB         26.3251    2.3910   -4.4878 C.3       6 UNK        -0.1936 
     42 C          26.6976    2.8114   -6.9603 C.2       6 UNK         0.5081 
     43 O          27.3980    3.7406   -7.3605 O.2       6 UNK        -0.5248 
     44 N          25.5649    2.4221   -7.5654 N.am      7 UNK        -0.4718 
     45 CA         25.0204    3.0314   -8.7848 C.3       7 UNK         0.0273 
     46 CB         23.6036    2.4986   -9.0494 C.3       7 UNK        -0.1935 
     47 C          25.9119    2.8152  -10.0175 C.2       7 UNK         0.5018 
     48 O          26.0478    3.7297  -10.8311 O.2       7 UNK        -0.5186 
     49 N          26.5246    1.6275  -10.1201 N.am      8 UNK        -0.4240 
     50 CA         27.5131    1.2939  -11.1494 C.3       8 UNK         0.0235 
     51 CB         27.6990   -0.2322  -11.1867 C.3       8 UNK        -0.2000 
     52 C          28.8749    1.9861  -10.9458 C.2       8 UNK         0.4941 
     53 O          29.6734    2.0043  -11.8833 O.2       8 UNK        -0.5273 
     54 N          29.1269    2.5039   -9.7322 N.am      9 UNK        -0.4262 
     55 CA         30.3996    3.0350   -9.2289 C.3       9 UNK         0.0264 
     56 CB         30.7908    4.3346   -9.9636 C.3       9 UNK        -0.1955 
     57 C          31.5137    1.9687   -9.2384 C.2       9 UNK         0.5031 
     58 O          32.6645    2.2726   -9.5620 O.2       9 UNK        -0.5390 
     59 N          31.1404    0.7269   -8.9051 N.am      10 UNK        -0.4204 
     60 CA         32.0243   -0.4334   -8.8906 C.3       10 UNK         0.0237 
     61 CB         31.1761   -1.7135   -8.9727 C.3       10 UNK        -0.1985 
     62 C          32.8941   -0.4435   -7.6275 C.2       10 UNK         0.4970 
     63 O          32.4149   -0.0772   -6.5519 O.2       10 UNK        -0.4914 
     64 N          34.1406   -0.9032   -7.7885 N.am      11 UNK        -0.4285 
     65 CA         35.1209   -1.1471   -6.7147 C.3       11 UNK         0.1007 
     66 C          35.6265    0.1293   -5.9742 C.2       11 UNK         0.5703 
     67 N          35.4168    1.3288   -6.5042 N.am      11 UNK        -0.7361 
     68 O          36.2553    0.0335   -4.9225 O.2       11 UNK        -0.4986 
     69 C69        34.6681   -2.2728   -5.7394 C.3       12 UNK        -0.0947 
     70 S70        34.2514   -3.8210   -6.6121 S.3       12 UNK        -0.2240 
     71 C71        33.8769   -4.9257   -5.2196 C.3       12 UNK         0.0194 
     72 H72        27.6067   -3.5896    2.7188 H         1 UNK         0.0906 
     73 H73        29.0155   -2.7486    3.3707 H         1 UNK         0.0906 
     74 H74        29.1786   -3.7629    1.9364 H         1 UNK         0.0906 
     75 H75        29.3484   -2.5454    0.0759 H         1 UNK         0.3140 
     76 H76        28.7280    0.2177   -0.1035 H         1 UNK         0.1085 
     77 H77        29.4146    0.0940   -2.4153 H         1 UNK         0.0836 
     78 H78        29.1815   -1.6095   -2.5226 H         1 UNK         0.0836 
     79 H79        32.4183   -3.0525   -0.8059 H         1 UNK         0.0731 
     80 H80        30.7126   -3.2874   -0.6205 H         1 UNK         0.0731 
     81 H81        33.5496   -3.5457   -2.8910 H         1 UNK         0.1312 
     82 H82        31.3227   -5.4743   -6.0094 H         1 UNK         0.1406 
     83 H83        29.2758   -3.7997   -2.6426 H         1 UNK         0.1631 
     84 H84        28.0009   -4.9073   -4.2852 H         1 UNK         0.0717 
     85 H85        28.8343   -6.1446   -5.1911 H         1 UNK         0.0717 
     86 H86        27.9946   -2.3746   -5.0058 H         1 UNK         0.0934 
     87 H87        29.4221   -2.0989   -5.9752 H         1 UNK         0.0934 
     88 H88        27.8644   -1.8610   -8.0200 H         1 UNK         0.0739 
     89 H89        25.8014   -2.3350   -6.0597 H         1 UNK         0.3093 
     90 H90        23.1136   -1.3162   -8.2031 H         1 UNK         0.0818 
     91 H91        23.7439   -3.6778   -8.7380 H         1 UNK         0.0819 
     92 H92        24.0375   -4.0002   -7.0351 H         1 UNK         0.0819 
     93 H93        22.4119   -3.6103   -7.5972 H         1 UNK         0.0819 
     94 H94        23.1197   -2.2372   -5.5026 H         1 UNK         0.3041 
     95 H95        23.3075    0.9878   -3.9639 H         1 UNK         0.0784 
     96 H96        20.9454    0.7215   -4.7589 H         1 UNK         0.0793 
     97 H97        20.9689   -0.9660   -4.2658 H         1 UNK         0.0793 
     98 H98        21.1197    0.3144   -3.0616 H         1 UNK         0.0793 
     99 H99        22.8933   -1.2887   -2.5695 H         1 UNK         0.3024 
    100 H100       24.5043   -1.8932   -1.1425 H         1 UNK         0.1171 
    101 H101       24.0591   -3.8650   -2.6453 H         1 UNK         0.0786 
    102 H102       25.7569   -3.9113   -3.0982 H         1 UNK         0.0786 
    103 H103       25.2698   -4.2527   -1.4372 H         1 UNK         0.0786 
    104 H104       27.1462   -2.6852   -1.3847 H         1 UNK         0.2977 
    105 H105       26.4634    0.0365   -5.3364 H         1 UNK         0.3127 
    106 H106       28.1936    2.2727   -5.5283 H         1 UNK         0.0770 
    107 H107       25.2682    2.1653   -4.6250 H         1 UNK         0.0814 
    108 H108       26.4060    3.4581   -4.2772 H         1 UNK         0.0814 
    109 H109       26.6682    1.8567   -3.6014 H         1 UNK         0.0814 
    110 H110       25.0108    1.6754   -7.1494 H         1 UNK         0.2983 
    111 H111       24.9528    4.1083   -8.6156 H         1 UNK         0.0947 
    112 H112       23.5991    1.4154   -9.1797 H         1 UNK         0.0806 
    113 H113       23.1802    2.9399   -9.9526 H         1 UNK         0.0806 
    114 H114       22.9307    2.7387   -8.2261 H         1 UNK         0.0806 
    115 H115       26.3020    0.9012   -9.4459 H         1 UNK         0.3000 
    116 H116       27.1237    1.6165  -12.1174 H         1 UNK         0.0850 
    117 H117       28.4065   -0.5236  -11.9642 H         1 UNK         0.0810 
    118 H118       26.7585   -0.7418  -11.3970 H         1 UNK         0.0810 
    119 H119       28.0808   -0.6130  -10.2387 H         1 UNK         0.0810 
    120 H120       28.3989    2.4196   -9.0333 H         1 UNK         0.3040 
    121 H121       30.2283    3.2855   -8.1809 H         1 UNK         0.0766 
    122 H122       31.0369    4.1515  -11.0099 H         1 UNK         0.0812 
    123 H123       31.6642    4.7956   -9.5011 H         1 UNK         0.0812 
    124 H124       29.9829    5.0655   -9.9309 H         1 UNK         0.0812 
    125 H125       30.1990    0.5901   -8.5378 H         1 UNK         0.3205 
    126 H126       32.6684   -0.3888   -9.7717 H         1 UNK         0.0754 
    127 H127       31.8089   -2.6019   -8.9938 H         1 UNK         0.0769 
    128 H128       30.5635   -1.7278   -9.8744 H         1 UNK         0.0769 
    129 H129       30.5113   -1.8105   -8.1146 H         1 UNK         0.0769 
    130 H130       34.4447   -1.1669   -8.7143 H         1 UNK         0.2981 
    131 H131       36.0085   -1.5178   -7.2282 H         1 UNK         0.0541 
    132 H132       35.7593    2.1468   -6.0257 H         1 UNK         0.3459 
    133 H133       34.9035    1.4237   -7.3664 H         1 UNK         0.3459 
    134 H134       33.8032   -1.9495   -5.1583 H         1 UNK         0.0612 
    135 H135       35.4571   -2.4984   -5.0201 H         1 UNK         0.0612 
    136 H136       33.8062   -5.9477   -5.5945 H         1 UNK         0.0624 
    137 H137       34.7109   -4.9175   -4.5160 H         1 UNK         0.0624 
@<TRIPOS>BOND
     1    1    2 1    
     2    1   72 1    
     3    1   73 1    
     4    1   74 1    
     5    2    3 2    
     6    2    4 am   BACKBONE|DICT|INTERRES
     7    4    5 1    
     8    4   75 1    
     9    5    6 1    
    10    5   35 1    
    11    5   76 1    
    12    6    7 1    
    13    6   77 1    
    14    6   78 1    
    15    7    8 1    
    16    8    9 1    
    17    8   79 1    
    18    8   80 1    
    19    9   10 ar   
    20    9   14 ar   
    21   10   11 ar   
    22   10   81 1    
    23   11   12 ar   
    24   11   71 1    
    25   12   13 ar   
    26   12   82 1    
    27   13   14 ar   
    28   13   15 1    
    29   14   83 1    
    30   15   16 1    
    31   15   84 1    
    32   15   85 1    
    33   16   17 1    
    34   17   18 1    
    35   17   86 1    
    36   17   87 1    
    37   18   19 1    
    38   18   37 1    
    39   18   88 1    
    40   19   20 am   BACKBONE|DICT|INTERRES
    41   19   89 1    
    42   20   21 2    
    43   20   22 1    
    44   22   23 1    
    45   22   24 1    
    46   22   90 1    
    47   23   91 1    
    48   23   92 1    
    49   23   93 1    
    50   24   25 am   BACKBONE|DICT|INTERRES
    51   24   94 1    
    52   25   26 2    
    53   25   27 1    
    54   27   28 1    
    55   27   29 1    
    56   27   95 1    
    57   28   96 1    
    58   28   97 1    
    59   28   98 1    
    60   29   30 am   BACKBONE|DICT|INTERRES
    61   29   99 1    
    62   30   31 2    
    63   30   32 1    
    64   32   33 1    
    65   32   34 1    
    66   32  100 1    
    67   33  101 1    
    68   33  102 1    
    69   33  103 1    
    70   34   35 am   BACKBONE|DICT|INTERRES
    71   34  104 1    
    72   35   36 2    
    73   37   38 2    
    74   37   39 am   BACKBONE|DICT|INTERRES
    75   39   40 1    
    76   39  105 1    
    77   40   41 1    
    78   40   42 1    
    79   40  106 1    
    80   41  107 1    
    81   41  108 1    
    82   41  109 1    
    83   42   43 2    
    84   42   44 am   BACKBONE|DICT|INTERRES
    85   44   45 1    
    86   44  110 1    
    87   45   46 1    
    88   45   47 1    
    89   45  111 1    
    90   46  112 1    
    91   46  113 1    
    92   46  114 1    
    93   47   48 2    
    94   47   49 am   BACKBONE|DICT|INTERRES
    95   49   50 1    
    96   49  115 1    
    97   50   51 1    
    98   50   52 1    
    99   50  116 1    
   100   51  117 1    
   101   51  118 1    
   102   51  119 1    
   103   52   53 2    
   104   52   54 am   BACKBONE|DICT|INTERRES
   105   54   55 1    
   106   54  120 1    
   107   55   56 1    
   108   55   57 1    
   109   55  121 1    
   110   56  122 1    
   111   56  123 1    
   112   56  124 1    
   113   57   58 2    
   114   57   59 am   BACKBONE|DICT|INTERRES
   115   59   60 1    
   116   59  125 1    
   117   60   61 1    
   118   60   62 1    
   119   60  126 1    
   120   61  127 1    
   121   61  128 1    
   122   61  129 1    
   123   62   63 2    
   124   62   64 am   BACKBONE|DICT|INTERRES
   125   64   65 1    
   126   64  130 1    
   127   65   66 1    
   128   65   69 1    
   129   65  131 1    
   130   66   67 am   BACKBONE|DICT|INTERRES
   131   66   68 2    
   132   67  132 1    
   133   67  133 1    
   134   69   70 1    
   135   69  134 1    
   136   69  135 1    
   137   70   71 1    
   138   71  136 1    
   139   71  137 1    
@<TRIPOS>SUBSTRUCTURE
     1 UNK         1 GROUP             0       ****    0 ROOT    
