@<TRIPOS>MOLECULE
3R137
137   139    1
SMALL
USER_CHARGES


@<TRIPOS>ATOM
      1 CA         29.4650   -2.8861    2.5597 C.3       0 UNK        -0.2020 
      2 C          29.3489   -2.4738    1.1002 C.2       0 UNK         0.4855 
      3 O          30.0083   -1.5244    0.6774 O.2       0 UNK        -0.5197 
      4 N          28.5155   -3.1810    0.3261 N.am      1 UNK        -0.4892 
      5 CA         28.2910   -2.9349   -1.1058 C.3       1 UNK         0.0835 
      6 C6         27.6299   -4.1516   -1.8051 C.3       12 UNK        -0.0855 
      7 S7         28.4277   -5.7719   -1.5063 S.3       12 UNK        -0.2931 
      8 C8         30.2039   -5.4573   -1.8106 C.3       12 UNK         0.0378 
      9 C9         30.5199   -4.8460   -3.1744 C.ar      12 UNK        -0.0802 
     10 C10        31.5527   -3.9078   -3.2806 C.ar      12 UNK        -0.0944 
     11 C11        31.8600   -3.3215   -4.5120 C.ar      12 UNK        -0.0787 
     12 C12        31.1261   -3.6786   -5.6453 C.ar      12 UNK        -0.0862 
     13 C13        30.0729   -4.5923   -5.5498 C.ar      12 UNK        -0.0733 
     14 C14        29.7979   -5.1982   -4.3213 C.ar      12 UNK        -0.0832 
     15 C15        29.1887   -4.8734   -6.7573 C.3       12 UNK         0.0240 
     16 S16        27.5180   -4.1648   -6.5442 S.3       12 UNK        -0.2522 
     17 C17        27.8841   -2.4015   -6.2422 C.3       12 UNK        -0.0967 
     18 CA         27.1766   -1.4610   -7.2415 C.3       5 UNK         0.0660 
     19 N          25.7185   -1.5213   -7.1102 N.am      5 UNK        -0.4015 
     20 C          24.8231   -0.7624   -7.7589 C.2       4 UNK         0.4946 
     21 O          25.1160    0.0200   -8.6649 O.2       4 UNK        -0.5353 
     22 CA         23.3665   -0.8235   -7.2595 C.3       4 UNK         0.0277 
     23 CB         22.5401   -1.7633   -8.1510 C.3       4 UNK        -0.1981 
     24 N          23.2085   -1.2197   -5.8495 N.am      4 UNK        -0.4209 
     25 C          23.8115   -0.6446   -4.7965 C.2       3 UNK         0.4942 
     26 O          24.6025    0.2975   -4.8984 O.2       3 UNK        -0.5208 
     27 CA         23.5253   -1.2449   -3.4110 C.3       3 UNK         0.0250 
     28 CB         23.4943   -2.7881   -3.4175 C.3       3 UNK        -0.1990 
     29 N          24.5620   -0.7890   -2.4903 N.am      3 UNK        -0.4232 
     30 C          24.4309   -0.5747   -1.1799 C.2       2 UNK         0.4993 
     31 O          23.3839   -0.7548   -0.5547 O.2       2 UNK        -0.5286 
     32 CA         25.7105   -0.1273   -0.4476 C.3       2 UNK         0.0209 
     33 CB         25.4291    0.3914    0.9752 C.3       2 UNK        -0.1931 
     34 N          26.6710   -1.2301   -0.3675 N.am      2 UNK        -0.4546 
     35 C          27.4476   -1.6679   -1.3701 C.2       1 UNK         0.5154 
     36 O          27.4868   -1.1314   -2.4790 O.2       1 UNK        -0.5181 
     37 C          27.7504   -0.0368   -7.0910 C.2       5 UNK         0.5014 
     38 O          28.7303    0.2709   -7.7674 O.2       5 UNK        -0.5248 
     39 N          27.1279    0.8226   -6.2691 N.am      6 UNK        -0.4434 
     40 CA         27.5190    2.2257   -6.0956 C.3       6 UNK         0.0363 
     41 CB         26.6786    2.8533   -4.9727 C.3       6 UNK        -0.1936 
     42 C          27.4150    3.0667   -7.3836 C.2       6 UNK         0.5081 
     43 O          28.1290    4.0622   -7.5033 O.2       6 UNK        -0.5248 
     44 N          26.5551    2.6485   -8.3224 N.am      7 UNK        -0.4718 
     45 CA         26.4426    3.2245   -9.6608 C.3       7 UNK         0.0273 
     46 CB         24.9563    3.4140  -10.0078 C.3       7 UNK        -0.1935 
     47 C          27.1297    2.3320  -10.7057 C.2       7 UNK         0.5018 
     48 O          27.8404    2.8529  -11.5656 O.2       7 UNK        -0.5186 
     49 N          26.8879    1.0145  -10.6344 N.am      8 UNK        -0.4240 
     50 CA         27.3178    0.0398  -11.6403 C.3       8 UNK         0.0235 
     51 CB         26.5038   -1.2542  -11.4747 C.3       8 UNK        -0.2000 
     52 C          28.8244   -0.2679  -11.6299 C.2       8 UNK         0.4941 
     53 O          29.3930   -0.4758  -12.7028 O.2       8 UNK        -0.5273 
     54 N          29.4353   -0.3174  -10.4395 N.am      9 UNK        -0.4262 
     55 CA         30.8484   -0.6525  -10.2386 C.3       9 UNK         0.0264 
     56 CB         30.9552   -1.8492   -9.2767 C.3       9 UNK        -0.1955 
     57 C          31.6489    0.5382   -9.6931 C.2       9 UNK         0.5031 
     58 O          32.8324    0.6543  -10.0109 O.2       9 UNK        -0.5390 
     59 N          31.0156    1.3744   -8.8571 N.am      10 UNK        -0.4204 
     60 CA         31.5250    2.5771   -8.1780 C.3       10 UNK         0.0237 
     61 CB         32.0227    3.6289   -9.1887 C.3       10 UNK        -0.1985 
     62 C          32.5717    2.3163   -7.0755 C.2       10 UNK         0.4970 
     63 O          32.6771    3.1332   -6.1595 O.2       10 UNK        -0.4914 
     64 N          33.2921    1.1917   -7.1592 N.am      11 UNK        -0.4285 
     65 CA         34.3133    0.7153   -6.2130 C.3       11 UNK         0.1007 
     66 C          35.5998    1.5977   -6.2068 C.2       11 UNK         0.5703 
     67 N          36.4840    1.4293   -5.2316 N.am      11 UNK        -0.7361 
     68 O          35.8378    2.4037   -7.1053 O.2       11 UNK        -0.4986 
     69 C69        33.7482    0.4255   -4.7872 C.3       12 UNK        -0.0947 
     70 S70        32.2459   -0.6114   -4.7833 S.3       12 UNK        -0.2240 
     71 C71        32.9591   -2.2760   -4.6185 C.3       12 UNK         0.0194 
     72 H72        29.1701   -2.0608    3.2073 H         1 UNK         0.0906 
     73 H73        28.8339   -3.7433    2.7937 H         1 UNK         0.0906 
     74 H74        30.4958   -3.1509    2.7934 H         1 UNK         0.0906 
     75 H75        28.0199   -3.9719    0.7144 H         1 UNK         0.3140 
     76 H76        29.2611   -2.7549   -1.5738 H         1 UNK         0.1085 
     77 H77        26.5887   -4.2487   -1.4902 H         1 UNK         0.0836 
     78 H78        27.5958   -3.9880   -2.8844 H         1 UNK         0.0836 
     79 H79        30.7409   -6.4028   -1.7254 H         1 UNK         0.0731 
     80 H80        30.5832   -4.8203   -1.0101 H         1 UNK         0.0731 
     81 H81        32.1134   -3.6239   -2.4002 H         1 UNK         0.1312 
     82 H82        31.3482   -3.2057   -6.5916 H         1 UNK         0.1406 
     83 H83        28.9869   -5.9104   -4.2546 H         1 UNK         0.1631 
     84 H84        29.1040   -5.9511   -6.9038 H         1 UNK         0.0717 
     85 H85        29.6332   -4.4713   -7.6691 H         1 UNK         0.0717 
     86 H86        27.6039   -2.1615   -5.2140 H         1 UNK         0.0934 
     87 H87        28.9613   -2.2450   -6.2965 H         1 UNK         0.0934 
     88 H88        27.4193   -1.7923   -8.2524 H         1 UNK         0.0739 
     89 H89        25.3727   -2.1505   -6.4017 H         1 UNK         0.3093 
     90 H90        22.9594    0.1851   -7.3557 H         1 UNK         0.0818 
     91 H91        21.4816   -1.7294   -7.8921 H         1 UNK         0.0819 
     92 H92        22.6224   -1.4779   -9.2010 H         1 UNK         0.0819 
     93 H93        22.8750   -2.7981   -8.0678 H         1 UNK         0.0819 
     94 H94        22.5773   -1.9881   -5.6728 H         1 UNK         0.3041 
     95 H95        22.5564   -0.8618   -3.0843 H         1 UNK         0.0784 
     96 H96        22.6663   -3.1737   -4.0128 H         1 UNK         0.0793 
     97 H97        24.4180   -3.2084   -3.8181 H         1 UNK         0.0793 
     98 H98        23.3639   -3.1831   -2.4096 H         1 UNK         0.0793 
     99 H99        25.4626   -0.5999   -2.9193 H         1 UNK         0.3024 
    100 H100       26.1532    0.6906   -1.0215 H         1 UNK         0.1171 
    101 H101       26.3397    0.7568    1.4505 H         1 UNK         0.0786 
    102 H102       24.7207    1.2206    0.9544 H         1 UNK         0.0786 
    103 H103       25.0053   -0.3841    1.6146 H         1 UNK         0.0786 
    104 H104       26.6919   -1.7487    0.4986 H         1 UNK         0.2977 
    105 H105       26.2944    0.5227   -5.7677 H         1 UNK         0.3127 
    106 H106       28.5662    2.2372   -5.7857 H         1 UNK         0.0770 
    107 H107       25.6177    2.8687   -5.2257 H         1 UNK         0.0814 
    108 H108       26.9849    3.8831   -4.7843 H         1 UNK         0.0814 
    109 H109       26.7918    2.3042   -4.0377 H         1 UNK         0.0814 
    110 H110       26.0214    1.8038   -8.1495 H         1 UNK         0.2983 
    111 H111       26.9230    4.2050   -9.6959 H         1 UNK         0.0947 
    112 H112       24.8395    3.8353  -11.0073 H         1 UNK         0.0806 
    113 H113       24.4731    4.0978   -9.3099 H         1 UNK         0.0806 
    114 H114       24.4084    2.4709   -9.9841 H         1 UNK         0.0806 
    115 H115       26.2612    0.6705   -9.9086 H         1 UNK         0.3000 
    116 H116       27.0818    0.4553  -12.6226 H         1 UNK         0.0850 
    117 H117       26.7702   -1.9842  -12.2404 H         1 UNK         0.0810 
    118 H118       25.4342   -1.0641  -11.5670 H         1 UNK         0.0810 
    119 H119       26.6760   -1.7215  -10.5054 H         1 UNK         0.0810 
    120 H120       28.9045   -0.0991   -9.6017 H         1 UNK         0.3040 
    121 H121       31.3097   -0.9430  -11.1848 H         1 UNK         0.0766 
    122 H122       30.5458   -1.6183   -8.2932 H         1 UNK         0.0812 
    123 H123       31.9959   -2.1437   -9.1349 H         1 UNK         0.0812 
    124 H124       30.4229   -2.7174   -9.6652 H         1 UNK         0.0812 
    125 H125       30.0863    1.0882   -8.5498 H         1 UNK         0.3205 
    126 H126       30.6588    3.0020   -7.6693 H         1 UNK         0.0754 
    127 H127       32.2782    4.5612   -8.6835 H         1 UNK         0.0769 
    128 H128       31.2556    3.8604   -9.9280 H         1 UNK         0.0769 
    129 H129       32.9145    3.2955   -9.7201 H         1 UNK         0.0769 
    130 H130       33.1993    0.6560   -8.0135 H         1 UNK         0.2981 
    131 H131       34.6413   -0.2386   -6.6267 H         1 UNK         0.0541 
    132 H132       36.3284    0.7617   -4.4933 H         1 UNK         0.3459 
    133 H133       37.3254    1.9846   -5.2354 H         1 UNK         0.3459 
    134 H134       33.5049    1.3608   -4.2808 H         1 UNK         0.0612 
    135 H135       34.4983   -0.0635   -4.1645 H         1 UNK         0.0612 
    136 H136       33.6062   -2.3098   -3.7407 H         1 UNK         0.0624 
    137 H137       33.5896   -2.4885   -5.4831 H         1 UNK         0.0624 
@<TRIPOS>BOND
     1    1    2 1    
     2    1   72 1    
     3    1   73 1    
     4    1   74 1    
     5    2    3 2    
     6    2    4 am   BACKBONE|DICT|INTERRES
     7    4    5 1    
     8    4   75 1    
     9    5    6 1    
    10    5   35 1    
    11    5   76 1    
    12    6    7 1    
    13    6   77 1    
    14    6   78 1    
    15    7    8 1    
    16    8    9 1    
    17    8   79 1    
    18    8   80 1    
    19    9   10 ar   
    20    9   14 ar   
    21   10   11 ar   
    22   10   81 1    
    23   11   12 ar   
    24   11   71 1    
    25   12   13 ar   
    26   12   82 1    
    27   13   14 ar   
    28   13   15 1    
    29   14   83 1    
    30   15   16 1    
    31   15   84 1    
    32   15   85 1    
    33   16   17 1    
    34   17   18 1    
    35   17   86 1    
    36   17   87 1    
    37   18   19 1    
    38   18   37 1    
    39   18   88 1    
    40   19   20 am   BACKBONE|DICT|INTERRES
    41   19   89 1    
    42   20   21 2    
    43   20   22 1    
    44   22   23 1    
    45   22   24 1    
    46   22   90 1    
    47   23   91 1    
    48   23   92 1    
    49   23   93 1    
    50   24   25 am   BACKBONE|DICT|INTERRES
    51   24   94 1    
    52   25   26 2    
    53   25   27 1    
    54   27   28 1    
    55   27   29 1    
    56   27   95 1    
    57   28   96 1    
    58   28   97 1    
    59   28   98 1    
    60   29   30 am   BACKBONE|DICT|INTERRES
    61   29   99 1    
    62   30   31 2    
    63   30   32 1    
    64   32   33 1    
    65   32   34 1    
    66   32  100 1    
    67   33  101 1    
    68   33  102 1    
    69   33  103 1    
    70   34   35 am   BACKBONE|DICT|INTERRES
    71   34  104 1    
    72   35   36 2    
    73   37   38 2    
    74   37   39 am   BACKBONE|DICT|INTERRES
    75   39   40 1    
    76   39  105 1    
    77   40   41 1    
    78   40   42 1    
    79   40  106 1    
    80   41  107 1    
    81   41  108 1    
    82   41  109 1    
    83   42   43 2    
    84   42   44 am   BACKBONE|DICT|INTERRES
    85   44   45 1    
    86   44  110 1    
    87   45   46 1    
    88   45   47 1    
    89   45  111 1    
    90   46  112 1    
    91   46  113 1    
    92   46  114 1    
    93   47   48 2    
    94   47   49 am   BACKBONE|DICT|INTERRES
    95   49   50 1    
    96   49  115 1    
    97   50   51 1    
    98   50   52 1    
    99   50  116 1    
   100   51  117 1    
   101   51  118 1    
   102   51  119 1    
   103   52   53 2    
   104   52   54 am   BACKBONE|DICT|INTERRES
   105   54   55 1    
   106   54  120 1    
   107   55   56 1    
   108   55   57 1    
   109   55  121 1    
   110   56  122 1    
   111   56  123 1    
   112   56  124 1    
   113   57   58 2    
   114   57   59 am   BACKBONE|DICT|INTERRES
   115   59   60 1    
   116   59  125 1    
   117   60   61 1    
   118   60   62 1    
   119   60  126 1    
   120   61  127 1    
   121   61  128 1    
   122   61  129 1    
   123   62   63 2    
   124   62   64 am   BACKBONE|DICT|INTERRES
   125   64   65 1    
   126   64  130 1    
   127   65   66 1    
   128   65   69 1    
   129   65  131 1    
   130   66   67 am   BACKBONE|DICT|INTERRES
   131   66   68 2    
   132   67  132 1    
   133   67  133 1    
   134   69   70 1    
   135   69  134 1    
   136   69  135 1    
   137   70   71 1    
   138   71  136 1    
   139   71  137 1    
@<TRIPOS>SUBSTRUCTURE
     1 UNK         1 GROUP             0       ****    0 ROOT    
