@<TRIPOS>MOLECULE
3R137
137   139    1
SMALL
USER_CHARGES


@<TRIPOS>ATOM
      1 CA         24.6919   -6.5393   -3.1154 C.3       0 UNK        -0.2020 
      2 C          24.8822   -5.4055   -2.1200 C.2       0 UNK         0.4855 
      3 O          23.9319   -4.6781   -1.8288 O.2       0 UNK        -0.5197 
      4 N          26.1080   -5.2533   -1.6034 N.am      1 UNK        -0.4892 
      5 CA         26.5574   -4.2218   -0.6601 C.3       1 UNK         0.0835 
      6 C6         28.0422   -4.4235   -0.2256 C.3       12 UNK        -0.0855 
      7 S7         29.1428   -5.1806   -1.4843 S.3       12 UNK        -0.2931 
      8 C8         30.7414   -4.3652   -1.1736 C.3       12 UNK         0.0378 
      9 C9         30.8776   -3.0889   -1.9877 C.ar      12 UNK        -0.0802 
     10 C10        31.3390   -3.1414   -3.3059 C.ar      12 UNK        -0.0944 
     11 C11        31.4257   -1.9803   -4.0812 C.ar      12 UNK        -0.0787 
     12 C12        31.0492   -0.7542   -3.5175 C.ar      12 UNK        -0.0862 
     13 C13        30.5978   -0.6886   -2.1950 C.ar      12 UNK        -0.0733 
     14 C14        30.5250   -1.8582   -1.4337 C.ar      12 UNK        -0.0832 
     15 C15        30.1736    0.6334   -1.5735 C.3       12 UNK         0.0240 
     16 S16        28.4024    0.6167   -1.1475 S.3       12 UNK        -0.2522 
     17 C17        27.6341    1.5772   -2.4903 C.3       12 UNK        -0.0967 
     18 CA         27.9134    1.0889   -3.9344 C.3       5 UNK         0.0660 
     19 N          27.6013   -0.3311   -4.1724 N.am      5 UNK        -0.4015 
     20 C          27.8315   -0.9783   -5.3305 C.2       4 UNK         0.4946 
     21 O          28.4002   -0.4660   -6.2941 O.2       4 UNK        -0.5353 
     22 CA         27.2669   -2.4002   -5.4867 C.3       4 UNK         0.0277 
     23 CB         28.2180   -3.4630   -4.9168 C.3       4 UNK        -0.1981 
     24 N          25.9556   -2.5086   -4.8503 N.am      4 UNK        -0.4209 
     25 C          24.8055   -2.1366   -5.4324 C.2       3 UNK         0.4942 
     26 O          24.7190   -1.7913   -6.6105 O.2       3 UNK        -0.5208 
     27 CA         23.5372   -2.1162   -4.5582 C.3       3 UNK         0.0250 
     28 CB         22.6963   -3.3820   -4.7838 C.3       3 UNK        -0.1990 
     29 N          23.8266   -1.9595   -3.1297 N.am      3 UNK        -0.4232 
     30 C          24.2948   -0.8249   -2.5875 C.2       2 UNK         0.4993 
     31 O          24.4636    0.2125   -3.2287 O.2       2 UNK        -0.5286 
     32 CA         24.7027   -0.8630   -1.1030 C.3       2 UNK         0.0209 
     33 CB         23.5235   -0.4435   -0.2118 C.3       2 UNK        -0.1931 
     34 N          25.2138   -2.1646   -0.6580 N.am      2 UNK        -0.4546 
     35 C          26.2676   -2.8017   -1.1904 C.2       1 UNK         0.5154 
     36 O          26.9399   -2.3373   -2.1102 O.2       1 UNK        -0.5181 
     37 C          27.1924    2.0232   -4.9269 C.2       5 UNK         0.5014 
     38 O          27.7915    2.9909   -5.3954 O.2       5 UNK        -0.5248 
     39 N          25.9394    1.6965   -5.2727 N.am      6 UNK        -0.4434 
     40 CA         25.1447    2.3812   -6.2975 C.3       6 UNK         0.0363 
     41 CB         23.7224    1.7982   -6.2973 C.3       6 UNK        -0.1936 
     42 C          25.7490    2.3305   -7.7179 C.2       6 UNK         0.5081 
     43 O          25.3445    3.1291   -8.5633 O.2       6 UNK        -0.5248 
     44 N          26.6982    1.4159   -7.9587 N.am      7 UNK        -0.4718 
     45 CA         27.4118    1.2377   -9.2215 C.3       7 UNK         0.0273 
     46 CB         27.1560   -0.1956   -9.7234 C.3       7 UNK        -0.1935 
     47 C          28.9200    1.5093   -9.0738 C.2       7 UNK         0.5018 
     48 O          29.6762    1.1030   -9.9579 O.2       7 UNK        -0.5186 
     49 N          29.3533    2.1765   -7.9888 N.am      8 UNK        -0.4240 
     50 CA         30.7598    2.3609   -7.5849 C.3       8 UNK         0.0235 
     51 CB         30.8276    3.1274   -6.2542 C.3       8 UNK        -0.2000 
     52 C          31.7122    3.0014   -8.6142 C.2       8 UNK         0.4941 
     53 O          32.9267    2.8770   -8.4530 O.2       8 UNK        -0.5273 
     54 N          31.1716    3.6394   -9.6623 N.am      9 UNK        -0.4262 
     55 CA         31.9218    4.0900  -10.8398 C.3       9 UNK         0.0264 
     56 CB         30.9904    4.8964  -11.7590 C.3       9 UNK        -0.1955 
     57 C          32.5806    2.9317  -11.6184 C.2       9 UNK         0.5031 
     58 O          33.6467    3.1328  -12.2023 O.2       9 UNK        -0.5390 
     59 N          31.9494    1.7496  -11.5935 N.am      10 UNK        -0.4204 
     60 CA         32.4871    0.4893  -12.1115 C.3       10 UNK         0.0237 
     61 CB         31.4944   -0.1034  -13.1255 C.3       10 UNK        -0.1985 
     62 C          32.7514   -0.5137  -10.9752 C.2       10 UNK         0.4970 
     63 O          33.7036   -1.2885  -11.0682 O.2       10 UNK        -0.4914 
     64 N          31.9078   -0.4846   -9.9340 N.am      11 UNK        -0.4285 
     65 CA         31.9023   -1.3808   -8.7680 C.3       11 UNK         0.1007 
     66 C          31.5069   -2.8554   -9.0959 C.2       11 UNK         0.5703 
     67 N          30.8600   -3.1272  -10.2237 N.am      11 UNK        -0.7361 
     68 O          31.7597   -3.7667   -8.3124 O.2       11 UNK        -0.4986 
     69 C69        33.1825   -1.2401   -7.8791 C.3       12 UNK        -0.0947 
     70 S70        32.8391   -0.7030   -6.1670 S.3       12 UNK        -0.2240 
     71 C71        31.8483   -2.0994   -5.5431 C.3       12 UNK         0.0194 
     72 H72        25.4615   -7.3034   -3.0061 H         1 UNK         0.0906 
     73 H73        23.7231   -7.0153   -2.9658 H         1 UNK         0.0906 
     74 H74        24.7328   -6.1582   -4.1351 H         1 UNK         0.0906 
     75 H75        26.8540   -5.8593   -1.9188 H         1 UNK         0.3140 
     76 H76        25.9506   -4.3496    0.2390 H         1 UNK         0.1085 
     77 H77        28.0648   -5.0899    0.6381 H         1 UNK         0.0836 
     78 H78        28.4760   -3.4877    0.1310 H         1 UNK         0.0836 
     79 H79        31.5431   -5.0547   -1.4425 H         1 UNK         0.0731 
     80 H80        30.8612   -4.1643   -0.1078 H         1 UNK         0.0731 
     81 H81        31.5988   -4.0978   -3.7389 H         1 UNK         0.1312 
     82 H82        31.0909    0.1455   -4.1146 H         1 UNK         0.1406 
     83 H83        30.1636   -1.8091   -0.4159 H         1 UNK         0.1631 
     84 H84        30.4025    1.4769   -2.2261 H         1 UNK         0.0717 
     85 H85        30.7492    0.7917   -0.6606 H         1 UNK         0.0717 
     86 H86        26.5605    1.5997   -2.2978 H         1 UNK         0.0934 
     87 H87        27.9709    2.6100   -2.3767 H         1 UNK         0.0934 
     88 H88        28.9789    1.2029   -4.1283 H         1 UNK         0.0739 
     89 H89        27.2208   -0.8550   -3.3896 H         1 UNK         0.3093 
     90 H90        27.1562   -2.6000   -6.5550 H         1 UNK         0.0818 
     91 H91        28.5111   -3.2435   -3.8907 H         1 UNK         0.0819 
     92 H92        27.7653   -4.4543   -4.9293 H         1 UNK         0.0819 
     93 H93        29.1311   -3.5202   -5.5079 H         1 UNK         0.0819 
     94 H94        25.9637   -2.7197   -3.8590 H         1 UNK         0.3041 
     95 H95        22.9404   -1.2577   -4.8747 H         1 UNK         0.0784 
     96 H96        22.4128   -3.4784   -5.8328 H         1 UNK         0.0793 
     97 H97        23.2413   -4.2846   -4.5114 H         1 UNK         0.0793 
     98 H98        21.7758   -3.3569   -4.2004 H         1 UNK         0.0793 
     99 H99        23.7430   -2.7884   -2.5472 H         1 UNK         0.3024 
    100 H100       25.5053   -0.1362   -0.9698 H         1 UNK         0.1171 
    101 H101       22.6970   -1.1526   -0.2749 H         1 UNK         0.0786 
    102 H102       23.1388    0.5334   -0.5088 H         1 UNK         0.0786 
    103 H103       23.8231   -0.3667    0.8335 H         1 UNK         0.0786 
    104 H104       24.6754   -2.6363    0.0548 H         1 UNK         0.2977 
    105 H105       25.4806    0.9453   -4.7643 H         1 UNK         0.3127 
    106 H106       25.0828    3.4336   -6.0131 H         1 UNK         0.0770 
    107 H107       23.7200    0.7459   -6.5824 H         1 UNK         0.0814 
    108 H108       23.0823    2.3282   -7.0039 H         1 UNK         0.0814 
    109 H109       23.2577    1.8808   -5.3145 H         1 UNK         0.0814 
    110 H110       27.0017    0.8092   -7.2036 H         1 UNK         0.2983 
    111 H111       27.0418    1.9357   -9.9751 H         1 UNK         0.0947 
    112 H112       27.6105   -0.3606  -10.7012 H         1 UNK         0.0806 
    113 H113       26.0891   -0.3943   -9.8271 H         1 UNK         0.0806 
    114 H114       27.5691   -0.9390   -9.0400 H         1 UNK         0.0806 
    115 H115       28.6607    2.4772   -7.3120 H         1 UNK         0.3000 
    116 H116       31.1537    1.3604   -7.4047 H         1 UNK         0.0850 
    117 H117       31.8589    3.3378   -5.9667 H         1 UNK         0.0810 
    118 H118       30.3929    2.5457   -5.4436 H         1 UNK         0.0810 
    119 H119       30.3016    4.0811   -6.3099 H         1 UNK         0.0810 
    120 H120       30.1653    3.7068   -9.7072 H         1 UNK         0.3040 
    121 H121       32.7201    4.7500  -10.4936 H         1 UNK         0.0766 
    122 H122       30.5789    5.7652  -11.2448 H         1 UNK         0.0812 
    123 H123       30.1571    4.2928  -12.1212 H         1 UNK         0.0812 
    124 H124       31.5297    5.2647  -12.6329 H         1 UNK         0.0812 
    125 H125       31.0748    1.6873  -11.0783 H         1 UNK         0.3205 
    126 H126       33.4369    0.6604  -12.6226 H         1 UNK         0.0754 
    127 H127       31.8579   -1.0530  -13.5208 H         1 UNK         0.0769 
    128 H128       31.3519    0.5667  -13.9735 H         1 UNK         0.0769 
    129 H129       30.5167   -0.2858  -12.6771 H         1 UNK         0.0769 
    130 H130       31.1101    0.1466   -9.9736 H         1 UNK         0.2981 
    131 H131       31.0508   -1.0186   -8.1916 H         1 UNK         0.0541 
    132 H132       30.6290   -2.3938  -10.8733 H         1 UNK         0.3459 
    133 H133       30.6013   -4.0803  -10.4234 H         1 UNK         0.3459 
    134 H134       33.7672   -2.1610   -7.8476 H         1 UNK         0.0612 
    135 H135       33.8604   -0.4944   -8.2968 H         1 UNK         0.0612 
    136 H136       30.9428   -2.1832   -6.1426 H         1 UNK         0.0624 
    137 H137       32.4174   -3.0175   -5.6971 H         1 UNK         0.0624 
@<TRIPOS>BOND
     1    1    2 1    
     2    1   72 1    
     3    1   73 1    
     4    1   74 1    
     5    2    3 2    
     6    2    4 am   BACKBONE|DICT|INTERRES
     7    4    5 1    
     8    4   75 1    
     9    5    6 1    
    10    5   35 1    
    11    5   76 1    
    12    6    7 1    
    13    6   77 1    
    14    6   78 1    
    15    7    8 1    
    16    8    9 1    
    17    8   79 1    
    18    8   80 1    
    19    9   10 ar   
    20    9   14 ar   
    21   10   11 ar   
    22   10   81 1    
    23   11   12 ar   
    24   11   71 1    
    25   12   13 ar   
    26   12   82 1    
    27   13   14 ar   
    28   13   15 1    
    29   14   83 1    
    30   15   16 1    
    31   15   84 1    
    32   15   85 1    
    33   16   17 1    
    34   17   18 1    
    35   17   86 1    
    36   17   87 1    
    37   18   19 1    
    38   18   37 1    
    39   18   88 1    
    40   19   20 am   BACKBONE|DICT|INTERRES
    41   19   89 1    
    42   20   21 2    
    43   20   22 1    
    44   22   23 1    
    45   22   24 1    
    46   22   90 1    
    47   23   91 1    
    48   23   92 1    
    49   23   93 1    
    50   24   25 am   BACKBONE|DICT|INTERRES
    51   24   94 1    
    52   25   26 2    
    53   25   27 1    
    54   27   28 1    
    55   27   29 1    
    56   27   95 1    
    57   28   96 1    
    58   28   97 1    
    59   28   98 1    
    60   29   30 am   BACKBONE|DICT|INTERRES
    61   29   99 1    
    62   30   31 2    
    63   30   32 1    
    64   32   33 1    
    65   32   34 1    
    66   32  100 1    
    67   33  101 1    
    68   33  102 1    
    69   33  103 1    
    70   34   35 am   BACKBONE|DICT|INTERRES
    71   34  104 1    
    72   35   36 2    
    73   37   38 2    
    74   37   39 am   BACKBONE|DICT|INTERRES
    75   39   40 1    
    76   39  105 1    
    77   40   41 1    
    78   40   42 1    
    79   40  106 1    
    80   41  107 1    
    81   41  108 1    
    82   41  109 1    
    83   42   43 2    
    84   42   44 am   BACKBONE|DICT|INTERRES
    85   44   45 1    
    86   44  110 1    
    87   45   46 1    
    88   45   47 1    
    89   45  111 1    
    90   46  112 1    
    91   46  113 1    
    92   46  114 1    
    93   47   48 2    
    94   47   49 am   BACKBONE|DICT|INTERRES
    95   49   50 1    
    96   49  115 1    
    97   50   51 1    
    98   50   52 1    
    99   50  116 1    
   100   51  117 1    
   101   51  118 1    
   102   51  119 1    
   103   52   53 2    
   104   52   54 am   BACKBONE|DICT|INTERRES
   105   54   55 1    
   106   54  120 1    
   107   55   56 1    
   108   55   57 1    
   109   55  121 1    
   110   56  122 1    
   111   56  123 1    
   112   56  124 1    
   113   57   58 2    
   114   57   59 am   BACKBONE|DICT|INTERRES
   115   59   60 1    
   116   59  125 1    
   117   60   61 1    
   118   60   62 1    
   119   60  126 1    
   120   61  127 1    
   121   61  128 1    
   122   61  129 1    
   123   62   63 2    
   124   62   64 am   BACKBONE|DICT|INTERRES
   125   64   65 1    
   126   64  130 1    
   127   65   66 1    
   128   65   69 1    
   129   65  131 1    
   130   66   67 am   BACKBONE|DICT|INTERRES
   131   66   68 2    
   132   67  132 1    
   133   67  133 1    
   134   69   70 1    
   135   69  134 1    
   136   69  135 1    
   137   70   71 1    
   138   71  136 1    
   139   71  137 1    
@<TRIPOS>SUBSTRUCTURE
     1 UNK         1 GROUP             0       ****    0 ROOT    
