@<TRIPOS>MOLECULE
3R137
137   139    1
SMALL
USER_CHARGES


@<TRIPOS>ATOM
      1 CA         25.3275   -7.2923   -1.5247 C.3       0 UNK        -0.2020 
      2 C          25.9177   -5.8911   -1.5653 C.2       0 UNK         0.4855 
      3 O          25.8712   -5.2423   -2.6100 O.2       0 UNK        -0.5197 
      4 N          26.4473   -5.4146   -0.4291 N.am      1 UNK        -0.4892 
      5 CA         27.1373   -4.1289   -0.2012 C.3       1 UNK         0.0835 
      6 C6         28.3930   -3.9215   -1.0866 C.3       12 UNK        -0.0855 
      7 S7         29.6047   -5.2837   -0.9429 S.3       12 UNK        -0.2931 
      8 C8         31.1806   -4.4346   -1.3074 C.3       12 UNK         0.0378 
      9 C9         31.1050   -3.5455   -2.5441 C.ar      12 UNK        -0.0802 
     10 C10        31.4973   -2.2057   -2.4670 C.ar      12 UNK        -0.0944 
     11 C11        31.3778   -1.3625   -3.5759 C.ar      12 UNK        -0.0787 
     12 C12        30.8518   -1.8690   -4.7686 C.ar      12 UNK        -0.0862 
     13 C13        30.4672   -3.2109   -4.8621 C.ar      12 UNK        -0.0733 
     14 C14        30.6172   -4.0481   -3.7541 C.ar      12 UNK        -0.0832 
     15 C15        29.8815   -3.7568   -6.1565 C.3       12 UNK         0.0240 
     16 S16        28.1701   -4.3653   -5.9740 S.3       12 UNK        -0.2522 
     17 C17        27.2779   -2.9402   -5.2611 C.3       12 UNK        -0.0967 
     18 CA         26.7908   -1.9279   -6.3319 C.3       5 UNK         0.0660 
     19 N          25.4910   -1.3422   -5.9933 N.am      5 UNK        -0.4015 
     20 C          24.7251   -0.6562   -6.8566 C.2       4 UNK         0.4946 
     21 O          25.0132   -0.4944   -8.0416 O.2       4 UNK        -0.5353 
     22 CA         23.4475    0.0041   -6.3060 C.3       4 UNK         0.0277 
     23 CB         22.2606   -0.9687   -6.3871 C.3       4 UNK        -0.1981 
     24 N          23.5939    0.4831   -4.9302 N.am      4 UNK        -0.4209 
     25 C          24.4692    1.4199   -4.5366 C.2       3 UNK         0.4942 
     26 O          25.1734    2.0601   -5.3153 O.2       3 UNK        -0.5208 
     27 CA         24.6340    1.6398   -3.0210 C.3       3 UNK         0.0250 
     28 CB         23.8136    2.8556   -2.5635 C.3       3 UNK        -0.1990 
     29 N          24.2799    0.4735   -2.2004 N.am      3 UNK        -0.4232 
     30 C          24.8587   -0.7334   -2.2812 C.2       2 UNK         0.4993 
     31 O          25.7570   -1.0103   -3.0816 O.2       2 UNK        -0.5286 
     32 CA         24.2605   -1.8278   -1.3854 C.3       2 UNK         0.0209 
     33 CB         23.0036   -2.4217   -2.0439 C.3       2 UNK        -0.1931 
     34 N          25.2144   -2.9095   -1.1536 N.am      2 UNK        -0.4546 
     35 C          26.2146   -2.8897   -0.2672 C.2       1 UNK         0.5154 
     36 O          26.4119   -1.9510    0.5065 O.2       1 UNK        -0.5181 
     37 C          27.8314   -0.8204   -6.5781 C.2       5 UNK         0.5014 
     38 O          28.5569   -0.8765   -7.5705 O.2       5 UNK        -0.5248 
     39 N          27.8523    0.1883   -5.6934 N.am      6 UNK        -0.4434 
     40 CA         28.7206    1.3650   -5.7891 C.3       6 UNK         0.0363 
     41 CB         28.6089    2.1900   -4.4965 C.3       6 UNK        -0.1936 
     42 C          28.4347    2.2433   -7.0202 C.2       6 UNK         0.5081 
     43 O          29.3553    2.8839   -7.5249 O.2       6 UNK        -0.5248 
     44 N          27.1760    2.2617   -7.4773 N.am      7 UNK        -0.4718 
     45 CA         26.7566    2.9099   -8.7185 C.3       7 UNK         0.0273 
     46 CB         25.2390    3.1521   -8.6794 C.3       7 UNK        -0.1935 
     47 C          27.1462    2.0955   -9.9647 C.2       7 UNK         0.5018 
     48 O          27.5616    2.6884  -10.9609 O.2       7 UNK        -0.5186 
     49 N          26.9785    0.7663   -9.9023 N.am      8 UNK        -0.4240 
     50 CA         27.2464   -0.1566  -11.0071 C.3       8 UNK         0.0235 
     51 CB         26.5603   -1.5055  -10.7337 C.3       8 UNK        -0.2000 
     52 C          28.7443   -0.3594  -11.2841 C.2       8 UNK         0.4941 
     53 O          29.1591   -0.2721  -12.4413 O.2       8 UNK        -0.5273 
     54 N          29.5209   -0.6562  -10.2351 N.am      9 UNK        -0.4262 
     55 CA         30.9616   -0.8978  -10.3195 C.3       9 UNK         0.0264 
     56 CB         31.3774   -1.8255   -9.1658 C.3       9 UNK        -0.1955 
     57 C          31.7504    0.4156  -10.2460 C.2       9 UNK         0.5031 
     58 O          31.2539    1.4109   -9.7153 O.2       9 UNK        -0.5390 
     59 N          33.0104    0.3791  -10.6976 N.am      10 UNK        -0.4204 
     60 CA         33.9809    1.4745  -10.5792 C.3       10 UNK         0.0237 
     61 CB         35.0667    1.2998  -11.6581 C.3       10 UNK        -0.1985 
     62 C          34.5669    1.5754   -9.1528 C.2       10 UNK         0.4970 
     63 O          35.7876    1.5791   -8.9833 O.2       10 UNK        -0.4914 
     64 N          33.6809    1.6265   -8.1519 N.am      11 UNK        -0.4285 
     65 CA         34.0065    1.6991   -6.7207 C.3       11 UNK         0.1007 
     66 C          34.4437    3.1157   -6.2397 C.2       11 UNK         0.5703 
     67 N          34.2214    4.1754   -7.0093 N.am      11 UNK        -0.7361 
     68 O          35.0149    3.2568   -5.1615 O.2       11 UNK        -0.4986 
     69 C69        32.8416    1.1146   -5.8750 C.3       12 UNK        -0.0947 
     70 S70        33.3864    0.4254   -4.2762 S.3       12 UNK        -0.2240 
     71 C71        31.7907    0.0990   -3.4644 C.3       12 UNK         0.0194 
     72 H72        24.2708   -7.2623   -1.7893 H         1 UNK         0.0906 
     73 H73        25.8401   -7.9336   -2.2415 H         1 UNK         0.0906 
     74 H74        25.4182   -7.7466   -0.5382 H         1 UNK         0.0906 
     75 H75        26.4103   -6.0055    0.3903 H         1 UNK         0.3140 
     76 H76        27.4832   -4.1753    0.8330 H         1 UNK         0.1085 
     77 H77        28.1129   -3.8177   -2.1368 H         1 UNK         0.0836 
     78 H78        28.8894   -2.9881   -0.8128 H         1 UNK         0.0836 
     79 H79        31.4676   -3.8520   -0.4307 H         1 UNK         0.0731 
     80 H80        31.9622   -5.1814   -1.4516 H         1 UNK         0.0731 
     81 H81        31.8835   -1.8128   -1.5364 H         1 UNK         0.1312 
     82 H82        30.7398   -1.2181   -5.6236 H         1 UNK         0.1406 
     83 H83        30.3097   -5.0832   -3.8206 H         1 UNK         0.1631 
     84 H84        30.5079   -4.5772   -6.5090 H         1 UNK         0.0717 
     85 H85        29.9046   -3.0039   -6.9416 H         1 UNK         0.0717 
     86 H86        26.4193   -3.3677   -4.7400 H         1 UNK         0.0934 
     87 H87        27.8672   -2.4673   -4.4729 H         1 UNK         0.0934 
     88 H88        26.6529   -2.4610   -7.2754 H         1 UNK         0.0739 
     89 H89        25.2380   -1.3643   -5.0112 H         1 UNK         0.3093 
     90 H90        23.2270    0.8683   -6.9362 H         1 UNK         0.0818 
     91 H91        21.3310   -0.4876   -6.0824 H         1 UNK         0.0819 
     92 H92        22.1187   -1.3244   -7.4088 H         1 UNK         0.0819 
     93 H93        22.4095   -1.8451   -5.7549 H         1 UNK         0.0819 
     94 H94        23.0406    0.0216   -4.2238 H         1 UNK         0.3041 
     95 H95        25.6897    1.8534   -2.8424 H         1 UNK         0.0784 
     96 H96        24.0763    3.7428   -3.1416 H         1 UNK         0.0793 
     97 H97        22.7427    2.6914   -2.6880 H         1 UNK         0.0793 
     98 H98        23.9993    3.0893   -1.5150 H         1 UNK         0.0793 
     99 H99        23.5358    0.6098   -1.5306 H         1 UNK         0.3024 
    100 H100       23.9879   -1.3867   -0.4237 H         1 UNK         0.1171 
    101 H101       22.2391   -1.6597   -2.2005 H         1 UNK         0.0786 
    102 H102       22.5596   -3.1967   -1.4188 H         1 UNK         0.0786 
    103 H103       23.2282   -2.8659   -3.0149 H         1 UNK         0.0786 
    104 H104       25.1988   -3.6930   -1.8018 H         1 UNK         0.2977 
    105 H105       27.2081    0.1589   -4.9149 H         1 UNK         0.3127 
    106 H106       29.7457    1.0048   -5.8846 H         1 UNK         0.0770 
    107 H107       27.6252    2.6482   -4.3937 H         1 UNK         0.0814 
    108 H108       29.3428    2.9969   -4.4896 H         1 UNK         0.0814 
    109 H109       28.7867    1.5800   -3.6110 H         1 UNK         0.0814 
    110 H110       26.4578    1.8020   -6.9282 H         1 UNK         0.2983 
    111 H111       27.2531    3.8807   -8.7865 H         1 UNK         0.0947 
    112 H112       24.9039    3.6720   -9.5778 H         1 UNK         0.0806 
    113 H113       24.9579    3.7665   -7.8236 H         1 UNK         0.0806 
    114 H114       24.6810    2.2174   -8.6160 H         1 UNK         0.0806 
    115 H115       26.5793    0.3633   -9.0611 H         1 UNK         0.3000 
    116 H116       26.8004    0.2656  -11.9104 H         1 UNK         0.0850 
    117 H117       26.7469   -2.2118  -11.5437 H         1 UNK         0.0810 
    118 H118       25.4798   -1.3889  -10.6483 H         1 UNK         0.0810 
    119 H119       26.9199   -1.9621   -9.8107 H         1 UNK         0.0810 
    120 H120       29.1140   -0.6638   -9.3004 H         1 UNK         0.3040 
    121 H121       31.1901   -1.3934  -11.2656 H         1 UNK         0.0766 
    122 H122       32.4364   -2.0800   -9.2221 H         1 UNK         0.0812 
    123 H123       30.8194   -2.7614   -9.1923 H         1 UNK         0.0812 
    124 H124       31.2072   -1.3576   -8.1953 H         1 UNK         0.0812 
    125 H125       33.3612   -0.4880  -11.0796 H         1 UNK         0.3205 
    126 H126       33.4684    2.4180  -10.7791 H         1 UNK         0.0754 
    127 H127       35.7772    2.1273  -11.6366 H         1 UNK         0.0769 
    128 H128       34.6323    1.2768  -12.6578 H         1 UNK         0.0769 
    129 H129       35.6336    0.3788  -11.5167 H         1 UNK         0.0769 
    130 H130       32.6956    1.6438   -8.3992 H         1 UNK         0.2981 
    131 H131       34.8744    1.0538   -6.5715 H         1 UNK         0.0541 
    132 H132       34.5172    5.0855   -6.6934 H         1 UNK         0.3459 
    133 H133       33.7544    4.0751   -7.8958 H         1 UNK         0.3459 
    134 H134       32.3596    0.2999   -6.4171 H         1 UNK         0.0612 
    135 H135       32.0683    1.8675   -5.7110 H         1 UNK         0.0612 
    136 H136       31.8775    0.3865   -2.4155 H         1 UNK         0.0624 
    137 H137       31.0162    0.7386   -3.8831 H         1 UNK         0.0624 
@<TRIPOS>BOND
     1    1    2 1    
     2    1   72 1    
     3    1   73 1    
     4    1   74 1    
     5    2    3 2    
     6    2    4 am   BACKBONE|DICT|INTERRES
     7    4    5 1    
     8    4   75 1    
     9    5    6 1    
    10    5   35 1    
    11    5   76 1    
    12    6    7 1    
    13    6   77 1    
    14    6   78 1    
    15    7    8 1    
    16    8    9 1    
    17    8   79 1    
    18    8   80 1    
    19    9   10 ar   
    20    9   14 ar   
    21   10   11 ar   
    22   10   81 1    
    23   11   12 ar   
    24   11   71 1    
    25   12   13 ar   
    26   12   82 1    
    27   13   14 ar   
    28   13   15 1    
    29   14   83 1    
    30   15   16 1    
    31   15   84 1    
    32   15   85 1    
    33   16   17 1    
    34   17   18 1    
    35   17   86 1    
    36   17   87 1    
    37   18   19 1    
    38   18   37 1    
    39   18   88 1    
    40   19   20 am   BACKBONE|DICT|INTERRES
    41   19   89 1    
    42   20   21 2    
    43   20   22 1    
    44   22   23 1    
    45   22   24 1    
    46   22   90 1    
    47   23   91 1    
    48   23   92 1    
    49   23   93 1    
    50   24   25 am   BACKBONE|DICT|INTERRES
    51   24   94 1    
    52   25   26 2    
    53   25   27 1    
    54   27   28 1    
    55   27   29 1    
    56   27   95 1    
    57   28   96 1    
    58   28   97 1    
    59   28   98 1    
    60   29   30 am   BACKBONE|DICT|INTERRES
    61   29   99 1    
    62   30   31 2    
    63   30   32 1    
    64   32   33 1    
    65   32   34 1    
    66   32  100 1    
    67   33  101 1    
    68   33  102 1    
    69   33  103 1    
    70   34   35 am   BACKBONE|DICT|INTERRES
    71   34  104 1    
    72   35   36 2    
    73   37   38 2    
    74   37   39 am   BACKBONE|DICT|INTERRES
    75   39   40 1    
    76   39  105 1    
    77   40   41 1    
    78   40   42 1    
    79   40  106 1    
    80   41  107 1    
    81   41  108 1    
    82   41  109 1    
    83   42   43 2    
    84   42   44 am   BACKBONE|DICT|INTERRES
    85   44   45 1    
    86   44  110 1    
    87   45   46 1    
    88   45   47 1    
    89   45  111 1    
    90   46  112 1    
    91   46  113 1    
    92   46  114 1    
    93   47   48 2    
    94   47   49 am   BACKBONE|DICT|INTERRES
    95   49   50 1    
    96   49  115 1    
    97   50   51 1    
    98   50   52 1    
    99   50  116 1    
   100   51  117 1    
   101   51  118 1    
   102   51  119 1    
   103   52   53 2    
   104   52   54 am   BACKBONE|DICT|INTERRES
   105   54   55 1    
   106   54  120 1    
   107   55   56 1    
   108   55   57 1    
   109   55  121 1    
   110   56  122 1    
   111   56  123 1    
   112   56  124 1    
   113   57   58 2    
   114   57   59 am   BACKBONE|DICT|INTERRES
   115   59   60 1    
   116   59  125 1    
   117   60   61 1    
   118   60   62 1    
   119   60  126 1    
   120   61  127 1    
   121   61  128 1    
   122   61  129 1    
   123   62   63 2    
   124   62   64 am   BACKBONE|DICT|INTERRES
   125   64   65 1    
   126   64  130 1    
   127   65   66 1    
   128   65   69 1    
   129   65  131 1    
   130   66   67 am   BACKBONE|DICT|INTERRES
   131   66   68 2    
   132   67  132 1    
   133   67  133 1    
   134   69   70 1    
   135   69  134 1    
   136   69  135 1    
   137   70   71 1    
   138   71  136 1    
   139   71  137 1    
@<TRIPOS>SUBSTRUCTURE
     1 UNK         1 GROUP             0       ****    0 ROOT    
