@<TRIPOS>MOLECULE
3R137
137   139    1
SMALL
USER_CHARGES


@<TRIPOS>ATOM
      1 CA         24.5173   -2.9552    1.1267 C.3       0 UNK        -0.2020 
      2 C          25.7744   -2.2947    0.5825 C.2       0 UNK         0.4855 
      3 O          25.8533   -1.0667    0.5423 O.2       0 UNK        -0.5197 
      4 N          26.7605   -3.0954    0.1574 N.am      1 UNK        -0.4892 
      5 CA         27.9828   -2.6205   -0.4993 C.3       1 UNK         0.0835 
      6 C6         29.0480   -3.7393   -0.5797 C.3       12 UNK        -0.0855 
      7 S7         30.7229   -3.0973   -0.9278 S.3       12 UNK        -0.2931 
      8 C8         31.2233   -4.0866   -2.3737 C.3       12 UNK         0.0378 
      9 C9         30.6554   -3.5464   -3.6798 C.ar      12 UNK        -0.0802 
     10 C10        31.3765   -2.6094   -4.4240 C.ar      12 UNK        -0.0944 
     11 C11        30.8979   -2.1626   -5.6592 C.ar      12 UNK        -0.0787 
     12 C12        29.6700   -2.6361   -6.1344 C.ar      12 UNK        -0.0862 
     13 C13        28.9197   -3.5546   -5.3872 C.ar      12 UNK        -0.0733 
     14 C14        29.4318   -4.0114   -4.1686 C.ar      12 UNK        -0.0832 
     15 C15        27.5528   -4.0844   -5.8260 C.3       12 UNK         0.0240 
     16 S16        27.0752   -3.7891   -7.5648 S.3       12 UNK        -0.2522 
     17 C17        26.4348   -2.0803   -7.5430 C.3       12 UNK        -0.0967 
     18 CA         24.9137   -2.0346   -7.2503 C.3       5 UNK         0.0660 
     19 N          24.6313   -2.2309   -5.8261 N.am      5 UNK        -0.4015 
     20 C          23.5055   -2.7601   -5.3276 C.2       4 UNK         0.4946 
     21 O          22.6075   -3.2433   -6.0180 O.2       4 UNK        -0.5353 
     22 CA         23.3448   -2.7314   -3.7962 C.3       4 UNK         0.0277 
     23 CB         23.8703   -4.0331   -3.1691 C.3       4 UNK        -0.1981 
     24 N          24.0188   -1.5784   -3.1895 N.am      4 UNK        -0.4209 
     25 C          23.5492   -0.3214   -3.2629 C.2       3 UNK         0.4942 
     26 O          22.4584   -0.0337   -3.7555 O.2       3 UNK        -0.5208 
     27 CA         24.4398    0.8203   -2.7358 C.3       3 UNK         0.0250 
     28 CB         23.9677    1.2745   -1.3457 C.3       3 UNK        -0.1990 
     29 N          25.8678    0.4941   -2.6872 N.am      3 UNK        -0.4232 
     30 C          26.6288    0.2322   -3.7605 C.2       2 UNK         0.4993 
     31 O          26.2032    0.2553   -4.9147 O.2       2 UNK        -0.5286 
     32 CA         28.0827   -0.2040   -3.5091 C.3       2 UNK         0.0209 
     33 CB         29.0335    1.0007   -3.5720 C.3       2 UNK        -0.1931 
     34 N          28.2841   -0.9171   -2.2434 N.am      2 UNK        -0.4546 
     35 C          27.6437   -2.0385   -1.8862 C.2       1 UNK         0.5154 
     36 O          26.7967   -2.5947   -2.5911 O.2       1 UNK        -0.5181 
     37 C          24.2785   -0.7210   -7.7533 C.2       5 UNK         0.5014 
     38 O          23.8792   -0.6558   -8.9170 O.2       5 UNK        -0.5248 
     39 N          24.1933    0.2928   -6.8782 N.am      6 UNK        -0.4434 
     40 CA         23.5679    1.6125   -7.0332 C.3       6 UNK         0.0363 
     41 CB         22.0738    1.5067   -7.3958 C.3       6 UNK        -0.1936 
     42 C          24.3271    2.5441   -7.9896 C.2       6 UNK         0.5081 
     43 O          24.7027    3.6445   -7.5850 O.2       6 UNK        -0.5248 
     44 N          24.5657    2.0859   -9.2245 N.am      7 UNK        -0.4718 
     45 CA         25.4416    2.7465  -10.1964 C.3       7 UNK         0.0273 
     46 CB         25.1845    2.1712  -11.5985 C.3       7 UNK        -0.1935 
     47 C          26.9219    2.6005   -9.8039 C.2       7 UNK         0.5018 
     48 O          27.6791    3.5649   -9.9231 O.2       7 UNK        -0.5186 
     49 N          27.2736    1.4040   -9.3062 N.am      8 UNK        -0.4240 
     50 CA         28.5794    0.9983   -8.7761 C.3       8 UNK         0.0235 
     51 CB         28.8603    1.7351   -7.4467 C.3       8 UNK        -0.2000 
     52 C          29.7208    1.1083   -9.8098 C.2       8 UNK         0.4941 
     53 O          29.4709    1.0357  -11.0154 O.2       8 UNK        -0.5273 
     54 N          30.9551    1.2306   -9.3145 N.am      9 UNK        -0.4262 
     55 CA         32.2134    1.3027  -10.0488 C.3       9 UNK         0.0264 
     56 CB         32.5118   -0.0374  -10.7556 C.3       9 UNK        -0.1955 
     57 C          33.3092    1.6422   -9.0292 C.2       9 UNK         0.5031 
     58 O          33.0412    1.6544   -7.8220 O.2       9 UNK        -0.5390 
     59 N          34.5338    1.8783   -9.5146 N.am      10 UNK        -0.4204 
     60 CA         35.7320    2.0955   -8.6977 C.3       10 UNK         0.0237 
     61 CB         36.7847    2.8397   -9.5414 C.3       10 UNK        -0.1985 
     62 C          36.2635    0.7674   -8.1191 C.2       10 UNK         0.4970 
     63 O          37.3551    0.3262   -8.4834 O.2       10 UNK        -0.4914 
     64 N          35.4596    0.1395   -7.2534 N.am      11 UNK        -0.4285 
     65 CA         35.7303   -1.1664   -6.6288 C.3       11 UNK         0.1007 
     66 C          36.8604   -1.1604   -5.5578 C.2       11 UNK         0.5703 
     67 N          37.3173   -0.0106   -5.0751 N.am      11 UNK        -0.7361 
     68 O          37.3359   -2.2222   -5.1623 O.2       11 UNK        -0.4986 
     69 C69        34.4384   -1.8130   -6.0603 C.3       12 UNK        -0.0947 
     70 S70        33.1165   -1.9810   -7.3101 S.3       12 UNK        -0.2240 
     71 C71        31.7062   -1.1739   -6.4874 C.3       12 UNK         0.0194 
     72 H72        23.6538   -2.6622    0.5300 H         1 UNK         0.0906 
     73 H73        24.5875   -4.0427    1.1106 H         1 UNK         0.0906 
     74 H74        24.3436   -2.6411    2.1556 H         1 UNK         0.0906 
     75 H75        26.6332   -4.0971    0.1822 H         1 UNK         0.3140 
     76 H76        28.3823   -1.8152    0.1221 H         1 UNK         0.1085 
     77 H77        28.7611   -4.5031   -1.3032 H         1 UNK         0.0836 
     78 H78        29.1086   -4.2554    0.3800 H         1 UNK         0.0836 
     79 H79        30.9312   -5.1281   -2.2305 H         1 UNK         0.0731 
     80 H80        32.3132   -4.0904   -2.4268 H         1 UNK         0.0731 
     81 H81        32.3236   -2.2473   -4.0505 H         1 UNK         0.1312 
     82 H82        29.3084   -2.2820   -7.0881 H         1 UNK         0.1406 
     83 H83        28.8672   -4.7338   -3.5960 H         1 UNK         0.1631 
     84 H84        26.7907   -3.6797   -5.1615 H         1 UNK         0.0717 
     85 H85        27.5387   -5.1646   -5.6738 H         1 UNK         0.0717 
     86 H86        26.9983   -1.4698   -6.8354 H         1 UNK         0.0934 
     87 H87        26.6448   -1.6706   -8.5327 H         1 UNK         0.0934 
     88 H88        24.4351   -2.8383   -7.8149 H         1 UNK         0.0739 
     89 H89        25.2995   -1.8326   -5.1812 H         1 UNK         0.3093 
     90 H90        22.2774   -2.6599   -3.5757 H         1 UNK         0.0818 
     91 H91        23.7754   -4.0196   -2.0832 H         1 UNK         0.0819 
     92 H92        23.3062   -4.8926   -3.5336 H         1 UNK         0.0819 
     93 H93        24.9181   -4.2097   -3.4123 H         1 UNK         0.0819 
     94 H94        24.9345   -1.7486   -2.7850 H         1 UNK         0.3041 
     95 H95        24.3224    1.6611   -3.4230 H         1 UNK         0.0784 
     96 H96        22.9267    1.5995   -1.3758 H         1 UNK         0.0793 
     97 H97        24.0335    0.4698   -0.6134 H         1 UNK         0.0793 
     98 H98        24.5572    2.1145   -0.9781 H         1 UNK         0.0793 
     99 H99        26.2843    0.4121   -1.7697 H         1 UNK         0.3024 
    100 H100       28.3479   -0.8907   -4.3145 H         1 UNK         0.1171 
    101 H101       30.0759    0.6817   -3.5505 H         1 UNK         0.0786 
    102 H102       28.8900    1.5681   -4.4915 H         1 UNK         0.0786 
    103 H103       28.8722    1.6870   -2.7399 H         1 UNK         0.0786 
    104 H104       28.9801   -0.5369   -1.6179 H         1 UNK         0.2977 
    105 H105       24.7140    0.1854   -6.0102 H         1 UNK         0.3127 
    106 H106       23.6242    2.0709   -6.0443 H         1 UNK         0.0770 
    107 H107       21.9167    1.0628   -8.3790 H         1 UNK         0.0814 
    108 H108       21.6081    2.4929   -7.4089 H         1 UNK         0.0814 
    109 H109       21.5347    0.9032   -6.6652 H         1 UNK         0.0814 
    110 H110       24.2255    1.1534   -9.4463 H         1 UNK         0.2983 
    111 H111       25.2026    3.8124  -10.2132 H         1 UNK         0.0947 
    112 H112       25.3844    1.0998  -11.6418 H         1 UNK         0.0806 
    113 H113       25.8241    2.6527  -12.3395 H         1 UNK         0.0806 
    114 H114       24.1519    2.3321  -11.9088 H         1 UNK         0.0806 
    115 H115       26.5603    0.6910   -9.3025 H         1 UNK         0.3000 
    116 H116       28.4952   -0.0644   -8.5486 H         1 UNK         0.0850 
    117 H117       27.9990    1.6750   -6.7804 H         1 UNK         0.0810 
    118 H118       29.0782    2.7915   -7.6083 H         1 UNK         0.0810 
    119 H119       29.7033    1.2999   -6.9100 H         1 UNK         0.0810 
    120 H120       31.0914    1.3272   -8.3144 H         1 UNK         0.3040 
    121 H121       32.1522    2.1103  -10.7807 H         1 UNK         0.0766 
    122 H122       33.4672   -0.0101  -11.2802 H         1 UNK         0.0812 
    123 H123       31.7534   -0.2778  -11.5002 H         1 UNK         0.0812 
    124 H124       32.5530   -0.8646  -10.0469 H         1 UNK         0.0812 
    125 H125       34.6771    1.8245  -10.5131 H         1 UNK         0.3205 
    126 H126       35.4723    2.7376   -7.8531 H         1 UNK         0.0754 
    127 H127       37.6843    3.0380   -8.9570 H         1 UNK         0.0769 
    128 H128       36.4071    3.8025   -9.8867 H         1 UNK         0.0769 
    129 H129       37.0849    2.2634  -10.4176 H         1 UNK         0.0769 
    130 H130       34.5538    0.5546   -7.0624 H         1 UNK         0.2981 
    131 H131       36.0900   -1.8218   -7.4243 H         1 UNK         0.0541 
    132 H132       38.0523   -0.0214   -4.3857 H         1 UNK         0.3459 
    133 H133       36.9339    0.8648   -5.3923 H         1 UNK         0.3459 
    134 H134       34.6469   -2.8118   -5.6727 H         1 UNK         0.0612 
    135 H135       34.0771   -1.2277   -5.2139 H         1 UNK         0.0612 
    136 H136       31.0758   -0.7366   -7.2610 H         1 UNK         0.0624 
    137 H137       32.0433   -0.3416   -5.8681 H         1 UNK         0.0624 
@<TRIPOS>BOND
     1    1    2 1    
     2    1   72 1    
     3    1   73 1    
     4    1   74 1    
     5    2    3 2    
     6    2    4 am   BACKBONE|DICT|INTERRES
     7    4    5 1    
     8    4   75 1    
     9    5    6 1    
    10    5   35 1    
    11    5   76 1    
    12    6    7 1    
    13    6   77 1    
    14    6   78 1    
    15    7    8 1    
    16    8    9 1    
    17    8   79 1    
    18    8   80 1    
    19    9   10 ar   
    20    9   14 ar   
    21   10   11 ar   
    22   10   81 1    
    23   11   12 ar   
    24   11   71 1    
    25   12   13 ar   
    26   12   82 1    
    27   13   14 ar   
    28   13   15 1    
    29   14   83 1    
    30   15   16 1    
    31   15   84 1    
    32   15   85 1    
    33   16   17 1    
    34   17   18 1    
    35   17   86 1    
    36   17   87 1    
    37   18   19 1    
    38   18   37 1    
    39   18   88 1    
    40   19   20 am   BACKBONE|DICT|INTERRES
    41   19   89 1    
    42   20   21 2    
    43   20   22 1    
    44   22   23 1    
    45   22   24 1    
    46   22   90 1    
    47   23   91 1    
    48   23   92 1    
    49   23   93 1    
    50   24   25 am   BACKBONE|DICT|INTERRES
    51   24   94 1    
    52   25   26 2    
    53   25   27 1    
    54   27   28 1    
    55   27   29 1    
    56   27   95 1    
    57   28   96 1    
    58   28   97 1    
    59   28   98 1    
    60   29   30 am   BACKBONE|DICT|INTERRES
    61   29   99 1    
    62   30   31 2    
    63   30   32 1    
    64   32   33 1    
    65   32   34 1    
    66   32  100 1    
    67   33  101 1    
    68   33  102 1    
    69   33  103 1    
    70   34   35 am   BACKBONE|DICT|INTERRES
    71   34  104 1    
    72   35   36 2    
    73   37   38 2    
    74   37   39 am   BACKBONE|DICT|INTERRES
    75   39   40 1    
    76   39  105 1    
    77   40   41 1    
    78   40   42 1    
    79   40  106 1    
    80   41  107 1    
    81   41  108 1    
    82   41  109 1    
    83   42   43 2    
    84   42   44 am   BACKBONE|DICT|INTERRES
    85   44   45 1    
    86   44  110 1    
    87   45   46 1    
    88   45   47 1    
    89   45  111 1    
    90   46  112 1    
    91   46  113 1    
    92   46  114 1    
    93   47   48 2    
    94   47   49 am   BACKBONE|DICT|INTERRES
    95   49   50 1    
    96   49  115 1    
    97   50   51 1    
    98   50   52 1    
    99   50  116 1    
   100   51  117 1    
   101   51  118 1    
   102   51  119 1    
   103   52   53 2    
   104   52   54 am   BACKBONE|DICT|INTERRES
   105   54   55 1    
   106   54  120 1    
   107   55   56 1    
   108   55   57 1    
   109   55  121 1    
   110   56  122 1    
   111   56  123 1    
   112   56  124 1    
   113   57   58 2    
   114   57   59 am   BACKBONE|DICT|INTERRES
   115   59   60 1    
   116   59  125 1    
   117   60   61 1    
   118   60   62 1    
   119   60  126 1    
   120   61  127 1    
   121   61  128 1    
   122   61  129 1    
   123   62   63 2    
   124   62   64 am   BACKBONE|DICT|INTERRES
   125   64   65 1    
   126   64  130 1    
   127   65   66 1    
   128   65   69 1    
   129   65  131 1    
   130   66   67 am   BACKBONE|DICT|INTERRES
   131   66   68 2    
   132   67  132 1    
   133   67  133 1    
   134   69   70 1    
   135   69  134 1    
   136   69  135 1    
   137   70   71 1    
   138   71  136 1    
   139   71  137 1    
@<TRIPOS>SUBSTRUCTURE
     1 UNK         1 GROUP             0       ****    0 ROOT    
