@<TRIPOS>MOLECULE
3R137
137   139    1
SMALL
USER_CHARGES


@<TRIPOS>ATOM
      1 CA         24.0988   -6.4214   -1.6958 C.3       0 UNK        -0.2020 
      2 C          25.2204   -5.5895   -1.0916 C.2       0 UNK         0.4855 
      3 O          25.7475   -5.9435   -0.0368 O.2       0 UNK        -0.5197 
      4 N          25.5881   -4.4873   -1.7505 N.am      1 UNK        -0.4892 
      5 CA         26.6179   -3.5448   -1.3232 C.3       1 UNK         0.0835 
      6 C6         28.0337   -4.0369   -1.7043 C.3       12 UNK        -0.0855 
      7 S7         29.3835   -3.0918   -0.9172 S.3       12 UNK        -0.2931 
      8 C8         30.8435   -4.0719   -1.4033 C.3       12 UNK         0.0378 
      9 C9         31.1362   -3.9574   -2.8937 C.ar      12 UNK        -0.0802 
     10 C10        32.0516   -3.0138   -3.3706 C.ar      12 UNK        -0.0944 
     11 C11        32.3074   -2.9021   -4.7419 C.ar      12 UNK        -0.0787 
     12 C12        31.6206   -3.7264   -5.6400 C.ar      12 UNK        -0.0862 
     13 C13        30.6992   -4.6694   -5.1732 C.ar      12 UNK        -0.0733 
     14 C14        30.4873   -4.7999   -3.7994 C.ar      12 UNK        -0.0832 
     15 C15        29.9233   -5.5516   -6.1413 C.3       12 UNK         0.0240 
     16 S16        28.7511   -4.6134   -7.1750 S.3       12 UNK        -0.2522 
     17 C17        27.6804   -3.7514   -5.9641 C.3       12 UNK        -0.0967 
     18 CA         27.0524   -2.4802   -6.5905 C.3       5 UNK         0.0660 
     19 N          25.7947   -2.0768   -5.9521 N.am      5 UNK        -0.4015 
     20 C          24.8442   -1.3867   -6.5989 C.2       4 UNK         0.4946 
     21 O          24.9249   -1.0548   -7.7831 O.2       4 UNK        -0.5353 
     22 CA         23.5966   -0.9837   -5.7952 C.3       4 UNK         0.0277 
     23 CB         22.8418   -2.2224   -5.2804 C.3       4 UNK        -0.1981 
     24 N          23.8384   -0.0589   -4.6820 N.am      4 UNK        -0.4209 
     25 C          24.5465    1.0808   -4.7145 C.2       3 UNK         0.4942 
     26 O          25.2329    1.4443   -5.6669 O.2       3 UNK        -0.5208 
     27 CA         24.4821    1.9886   -3.4716 C.3       3 UNK         0.0250 
     28 CB         23.5835    3.2019   -3.7605 C.3       3 UNK        -0.1990 
     29 N          23.9815    1.3057   -2.2731 N.am      3 UNK        -0.4232 
     30 C          24.6575    0.4857   -1.4552 C.2       2 UNK         0.4993 
     31 O          24.1043   -0.0630   -0.5016 O.2       2 UNK        -0.5286 
     32 CA         26.1682    0.2520   -1.6717 C.3       2 UNK         0.0209 
     33 CB         26.9930    1.2663   -0.8617 C.3       2 UNK        -0.1931 
     34 N          26.5465   -1.0992   -1.2648 N.am      2 UNK        -0.4546 
     35 C          26.2785   -2.1978   -1.9783 C.2       1 UNK         0.5154 
     36 O          25.7945   -2.1791   -3.1168 O.2       1 UNK        -0.5181 
     37 C          28.0505   -1.3083   -6.6504 C.2       5 UNK         0.5014 
     38 O          28.8199   -1.2289   -7.6067 O.2       5 UNK        -0.5248 
     39 N          28.0046   -0.4027   -5.6610 N.am      6 UNK        -0.4434 
     40 CA         28.9002    0.7531   -5.5604 C.3       6 UNK         0.0363 
     41 CB         28.6783    1.4881   -4.2316 C.3       6 UNK        -0.1936 
     42 C          28.7993    1.7192   -6.7507 C.2       6 UNK         0.5081 
     43 O          29.8298    2.1960   -7.2277 O.2       6 UNK        -0.5248 
     44 N          27.5719    1.9644   -7.2262 N.am      7 UNK        -0.4718 
     45 CA         27.2991    2.7490   -8.4293 C.3       7 UNK         0.0273 
     46 CB         25.8251    3.1838   -8.4312 C.3       7 UNK        -0.1935 
     47 C          27.6382    1.9835   -9.7187 C.2       7 UNK         0.5018 
     48 O          28.1498    2.5927  -10.6577 O.2       7 UNK        -0.5186 
     49 N          27.3539    0.6724   -9.7449 N.am      8 UNK        -0.4240 
     50 CA         27.5784   -0.2039  -10.8991 C.3       8 UNK         0.0235 
     51 CB         26.8423   -1.5375  -10.6939 C.3       8 UNK        -0.2000 
     52 C          29.0688   -0.4435  -11.1878 C.2       8 UNK         0.4941 
     53 O          29.4890   -0.3270  -12.3395 O.2       8 UNK        -0.5273 
     54 N          29.8419   -0.7546  -10.1390 N.am      9 UNK        -0.4262 
     55 CA         31.2939   -0.9414  -10.2002 C.3       9 UNK         0.0264 
     56 CB         31.7350   -1.8058   -9.0073 C.3       9 UNK        -0.1955 
     57 C          32.0700    0.3878  -10.2154 C.2       9 UNK         0.5031 
     58 O          33.2638    0.3762  -10.5177 O.2       9 UNK        -0.5390 
     59 N          31.3923    1.4930   -9.8684 N.am      10 UNK        -0.4204 
     60 CA         31.9036    2.8623   -9.7310 C.3       10 UNK         0.0237 
     61 CB         32.4185    3.4058  -11.0810 C.3       10 UNK        -0.1985 
     62 C          32.9242    3.0319   -8.5864 C.2       10 UNK         0.4970 
     63 O          33.6895    3.9980   -8.5948 O.2       10 UNK        -0.4914 
     64 N          32.9067    2.1110   -7.6143 N.am      11 UNK        -0.4285 
     65 CA         33.6999    2.1742   -6.3802 C.3       11 UNK         0.1007 
     66 C          33.0836    3.0931   -5.2850 C.2       11 UNK         0.5703 
     67 N          31.8245    3.5048   -5.3936 N.am      11 UNK        -0.7361 
     68 O          33.7694    3.4551   -4.3317 O.2       11 UNK        -0.4986 
     69 C69        34.0463    0.7576   -5.8480 C.3       12 UNK        -0.0947 
     70 S70        32.5866   -0.2452   -5.4154 S.3       12 UNK        -0.2240 
     71 C71        33.3277   -1.8926   -5.2470 C.3       12 UNK         0.0194 
     72 H72        23.7298   -5.9940   -2.6280 H         1 UNK         0.0906 
     73 H73        24.4510   -7.4317   -1.9025 H         1 UNK         0.0906 
     74 H74        23.2635   -6.4876   -0.9991 H         1 UNK         0.0906 
     75 H75        25.1072   -4.2007   -2.5947 H         1 UNK         0.3140 
     76 H76        26.5513   -3.4299   -0.2386 H         1 UNK         0.1085 
     77 H77        28.1526   -5.0818   -1.4130 H         1 UNK         0.0836 
     78 H78        28.1503   -4.0059   -2.7864 H         1 UNK         0.0836 
     79 H79        31.7041   -3.7267   -0.8283 H         1 UNK         0.0731 
     80 H80        30.6940   -5.1165   -1.1253 H         1 UNK         0.0731 
     81 H81        32.5645   -2.3628   -2.6757 H         1 UNK         0.1312 
     82 H82        31.7950   -3.6311   -6.7026 H         1 UNK         0.1406 
     83 H83        29.7913   -5.5424   -3.4340 H         1 UNK         0.1631 
     84 H84        30.6279   -6.0702   -6.7928 H         1 UNK         0.0717 
     85 H85        29.3735   -6.3285   -5.6077 H         1 UNK         0.0717 
     86 H86        26.9006   -4.4516   -5.6608 H         1 UNK         0.0934 
     87 H87        28.2372   -3.5030   -5.0605 H         1 UNK         0.0934 
     88 H88        26.8077   -2.7310   -7.6247 H         1 UNK         0.0739 
     89 H89        25.6898   -2.2567   -4.9549 H         1 UNK         0.3093 
     90 H90        22.9351   -0.4618   -6.4897 H         1 UNK         0.0818 
     91 H91        21.8657   -1.9516   -4.8776 H         1 UNK         0.0819 
     92 H92        22.6683   -2.9387   -6.0849 H         1 UNK         0.0819 
     93 H93        23.3938   -2.7400   -4.4952 H         1 UNK         0.0819 
     94 H94        23.3406   -0.2655   -3.8286 H         1 UNK         0.3041 
     95 H95        25.4849    2.3722   -3.2807 H         1 UNK         0.0784 
     96 H96        23.9424    3.7560   -4.6294 H         1 UNK         0.0793 
     97 H97        22.5542    2.9054   -3.9668 H         1 UNK         0.0793 
     98 H98        23.5713    3.8964   -2.9201 H         1 UNK         0.0793 
     99 H99        23.0051    1.4617   -2.0660 H         1 UNK         0.3024 
    100 H100       26.4223    0.3507   -2.7252 H         1 UNK         0.1171 
    101 H101       28.0632    1.1056   -0.9928 H         1 UNK         0.0786 
    102 H102       26.7791    2.2886   -1.1758 H         1 UNK         0.0786 
    103 H103       26.7747    1.2028    0.2053 H         1 UNK         0.0786 
    104 H104       26.9390   -1.1997   -0.3397 H         1 UNK         0.2977 
    105 H105       27.3183   -0.5221   -4.9323 H         1 UNK         0.3127 
    106 H106       29.9139    0.3594   -5.5569 H         1 UNK         0.0770 
    107 H107       27.6790    1.9170   -4.1691 H         1 UNK         0.0814 
    108 H108       29.3891    2.3079   -4.1207 H         1 UNK         0.0814 
    109 H109       28.8249    0.8214   -3.3820 H         1 UNK         0.0814 
    110 H110       26.7651    1.5872   -6.7317 H         1 UNK         0.2983 
    111 H111       27.9199    3.6476   -8.4030 H         1 UNK         0.0947 
    112 H112       25.5956    3.7876   -9.3103 H         1 UNK         0.0806 
    113 H113       25.5894    3.7849   -7.5527 H         1 UNK         0.0806 
    114 H114       25.1514    2.3256   -8.4364 H         1 UNK         0.0806 
    115 H115       26.9430    0.2514   -8.9225 H         1 UNK         0.3000 
    116 H116       27.1469    0.2861  -11.7747 H         1 UNK         0.0850 
    117 H117       26.9404   -2.1750  -11.5735 H         1 UNK         0.0810 
    118 H118       25.7769   -1.3824  -10.5225 H         1 UNK         0.0810 
    119 H119       27.2409   -2.0932   -9.8453 H         1 UNK         0.0810 
    120 H120       29.4095   -0.8724   -9.2202 H         1 UNK         0.3040 
    121 H121       31.5412   -1.4767  -11.1194 H         1 UNK         0.0766 
    122 H122       31.2297   -2.7719   -9.0120 H         1 UNK         0.0812 
    123 H123       31.5142   -1.3206   -8.0561 H         1 UNK         0.0812 
    124 H124       32.8083   -1.9983   -9.0347 H         1 UNK         0.0812 
    125 H125       30.4210    1.3749   -9.6133 H         1 UNK         0.3205 
    126 H126       31.0416    3.4675   -9.4461 H         1 UNK         0.0754 
    127 H127       32.6416    4.4714  -11.0151 H         1 UNK         0.0769 
    128 H128       31.6736    3.2810  -11.8670 H         1 UNK         0.0769 
    129 H129       33.3319    2.9030  -11.3998 H         1 UNK         0.0769 
    130 H130       32.2035    1.3877   -7.6492 H         1 UNK         0.2981 
    131 H131       34.6544    2.6391   -6.6341 H         1 UNK         0.0541 
    132 H132       31.2396    3.1742   -6.1527 H         1 UNK         0.3459 
    133 H133       31.4434    4.1130   -4.6876 H         1 UNK         0.3459 
    134 H134       34.6942    0.8248   -4.9722 H         1 UNK         0.0612 
    135 H135       34.6203    0.2192   -6.6038 H         1 UNK         0.0612 
    136 H136       34.1710   -1.8418   -4.5566 H         1 UNK         0.0624 
    137 H137       33.7313   -2.2066   -6.2109 H         1 UNK         0.0624 
@<TRIPOS>BOND
     1    1    2 1    
     2    1   72 1    
     3    1   73 1    
     4    1   74 1    
     5    2    3 2    
     6    2    4 am   BACKBONE|DICT|INTERRES
     7    4    5 1    
     8    4   75 1    
     9    5    6 1    
    10    5   35 1    
    11    5   76 1    
    12    6    7 1    
    13    6   77 1    
    14    6   78 1    
    15    7    8 1    
    16    8    9 1    
    17    8   79 1    
    18    8   80 1    
    19    9   10 ar   
    20    9   14 ar   
    21   10   11 ar   
    22   10   81 1    
    23   11   12 ar   
    24   11   71 1    
    25   12   13 ar   
    26   12   82 1    
    27   13   14 ar   
    28   13   15 1    
    29   14   83 1    
    30   15   16 1    
    31   15   84 1    
    32   15   85 1    
    33   16   17 1    
    34   17   18 1    
    35   17   86 1    
    36   17   87 1    
    37   18   19 1    
    38   18   37 1    
    39   18   88 1    
    40   19   20 am   BACKBONE|DICT|INTERRES
    41   19   89 1    
    42   20   21 2    
    43   20   22 1    
    44   22   23 1    
    45   22   24 1    
    46   22   90 1    
    47   23   91 1    
    48   23   92 1    
    49   23   93 1    
    50   24   25 am   BACKBONE|DICT|INTERRES
    51   24   94 1    
    52   25   26 2    
    53   25   27 1    
    54   27   28 1    
    55   27   29 1    
    56   27   95 1    
    57   28   96 1    
    58   28   97 1    
    59   28   98 1    
    60   29   30 am   BACKBONE|DICT|INTERRES
    61   29   99 1    
    62   30   31 2    
    63   30   32 1    
    64   32   33 1    
    65   32   34 1    
    66   32  100 1    
    67   33  101 1    
    68   33  102 1    
    69   33  103 1    
    70   34   35 am   BACKBONE|DICT|INTERRES
    71   34  104 1    
    72   35   36 2    
    73   37   38 2    
    74   37   39 am   BACKBONE|DICT|INTERRES
    75   39   40 1    
    76   39  105 1    
    77   40   41 1    
    78   40   42 1    
    79   40  106 1    
    80   41  107 1    
    81   41  108 1    
    82   41  109 1    
    83   42   43 2    
    84   42   44 am   BACKBONE|DICT|INTERRES
    85   44   45 1    
    86   44  110 1    
    87   45   46 1    
    88   45   47 1    
    89   45  111 1    
    90   46  112 1    
    91   46  113 1    
    92   46  114 1    
    93   47   48 2    
    94   47   49 am   BACKBONE|DICT|INTERRES
    95   49   50 1    
    96   49  115 1    
    97   50   51 1    
    98   50   52 1    
    99   50  116 1    
   100   51  117 1    
   101   51  118 1    
   102   51  119 1    
   103   52   53 2    
   104   52   54 am   BACKBONE|DICT|INTERRES
   105   54   55 1    
   106   54  120 1    
   107   55   56 1    
   108   55   57 1    
   109   55  121 1    
   110   56  122 1    
   111   56  123 1    
   112   56  124 1    
   113   57   58 2    
   114   57   59 am   BACKBONE|DICT|INTERRES
   115   59   60 1    
   116   59  125 1    
   117   60   61 1    
   118   60   62 1    
   119   60  126 1    
   120   61  127 1    
   121   61  128 1    
   122   61  129 1    
   123   62   63 2    
   124   62   64 am   BACKBONE|DICT|INTERRES
   125   64   65 1    
   126   64  130 1    
   127   65   66 1    
   128   65   69 1    
   129   65  131 1    
   130   66   67 am   BACKBONE|DICT|INTERRES
   131   66   68 2    
   132   67  132 1    
   133   67  133 1    
   134   69   70 1    
   135   69  134 1    
   136   69  135 1    
   137   70   71 1    
   138   71  136 1    
   139   71  137 1    
@<TRIPOS>SUBSTRUCTURE
     1 UNK         1 GROUP             0       ****    0 ROOT    
