@<TRIPOS>MOLECULE
3R137
137   139    1
SMALL
USER_CHARGES


@<TRIPOS>ATOM
      1 CA         25.7192   -5.5720    1.7522 C.3       0 UNK        -0.2020 
      2 C          26.5020   -4.5520    0.9393 C.2       0 UNK         0.4855 
      3 O          26.9493   -3.5450    1.4870 O.2       0 UNK        -0.5197 
      4 N          26.6578   -4.7946   -0.3681 N.am      1 UNK        -0.4892 
      5 CA         27.4127   -3.9488   -1.3034 C.3       1 UNK         0.0835 
      6 C6         28.0812   -4.7860   -2.4250 C.3       12 UNK        -0.0855 
      7 S7         29.4561   -5.8360   -1.8421 S.3       12 UNK        -0.2931 
      8 C8         30.7746   -4.6422   -1.3981 C.3       12 UNK         0.0378 
      9 C9         30.8818   -3.4421   -2.3358 C.ar      12 UNK        -0.0802 
     10 C10        31.2925   -3.6025   -3.6624 C.ar      12 UNK        -0.0944 
     11 C11        31.3614   -2.5012   -4.5238 C.ar      12 UNK        -0.0787 
     12 C12        31.0180   -1.2298   -4.0516 C.ar      12 UNK        -0.0862 
     13 C13        30.6202   -1.0545   -2.7226 C.ar      12 UNK        -0.0733 
     14 C14        30.5655   -2.1624   -1.8707 C.ar      12 UNK        -0.0832 
     15 C15        30.2590    0.3256   -2.1892 C.3       12 UNK         0.0240 
     16 S16        28.5298    0.3801   -1.6174 S.3       12 UNK        -0.2522 
     17 C17        27.7122    1.5727   -2.7274 C.3       12 UNK        -0.0967 
     18 CA         27.8659    1.3375   -4.2535 C.3       5 UNK         0.0660 
     19 N          27.5545   -0.0296   -4.6900 N.am      5 UNK        -0.4015 
     20 C          27.7414   -0.4801   -5.9420 C.2       4 UNK         0.4946 
     21 O          28.2992    0.1704   -6.8242 O.2       4 UNK        -0.5353 
     22 CA         27.1636   -1.8559   -6.3031 C.3       4 UNK         0.0277 
     23 CB         28.1711   -2.9730   -6.0087 C.3       4 UNK        -0.1981 
     24 N          25.9101   -2.1121   -5.5968 N.am      4 UNK        -0.4209 
     25 C          24.7295   -1.5892   -5.9538 C.2       3 UNK         0.4942 
     26 O          24.5729   -0.8724   -6.9424 O.2       3 UNK        -0.5208 
     27 CA         23.5276   -1.8902   -5.0405 C.3       3 UNK         0.0250 
     28 CB         22.8552   -3.2092   -5.4523 C.3       3 UNK        -0.1990 
     29 N          23.8800   -1.9431   -3.6183 N.am      3 UNK        -0.4232 
     30 C          24.3096   -0.8895   -2.9106 C.2       2 UNK         0.4993 
     31 O          24.4322    0.2429   -3.3783 O.2       2 UNK        -0.5286 
     32 CA         24.7219   -1.1492   -1.4508 C.3       2 UNK         0.0209 
     33 CB         23.4908   -1.1238   -0.5311 C.3       2 UNK        -0.1931 
     34 N          25.4864   -2.3833   -1.2104 N.am      2 UNK        -0.4546 
     35 C          26.5845   -2.7737   -1.8761 C.2       1 UNK         0.5154 
     36 O          26.9598   -2.2293   -2.9138 O.2       1 UNK        -0.5181 
     37 C          27.0206    2.3793   -5.0155 C.2       5 UNK         0.5014 
     38 O          27.5604    3.4045   -5.4316 O.2       5 UNK        -0.5248 
     39 N          25.7209    2.0917   -5.1933 N.am      6 UNK        -0.4434 
     40 CA         24.7821    2.9073   -5.9676 C.3       6 UNK         0.0363 
     41 CB         23.3499    2.3909   -5.7575 C.3       6 UNK        -0.1936 
     42 C          25.1285    2.9631   -7.4655 C.2       6 UNK         0.5081 
     43 O          25.0104    4.0304   -8.0683 O.2       6 UNK        -0.5248 
     44 N          25.5655    1.8298   -8.0357 N.am      7 UNK        -0.4718 
     45 CA         26.0799    1.7445   -9.4068 C.3       7 UNK         0.0273 
     46 CB         26.2125    0.2700   -9.8202 C.3       7 UNK        -0.1935 
     47 C          27.4240    2.4738   -9.5794 C.2       7 UNK         0.5018 
     48 O          27.6528    3.0801  -10.6270 O.2       7 UNK        -0.5186 
     49 N          28.2838    2.3900   -8.5535 N.am      8 UNK        -0.4240 
     50 CA         29.6141    2.9882   -8.3881 C.3       8 UNK         0.0235 
     51 CB         29.5666    4.5258   -8.4730 C.3       8 UNK        -0.2000 
     52 C          30.6787    2.4009   -9.3260 C.2       8 UNK         0.4941 
     53 O          31.7261    1.9616   -8.8497 O.2       8 UNK        -0.5273 
     54 N          30.3793    2.3608  -10.6317 N.am      9 UNK        -0.4262 
     55 CA         31.2335    1.8478  -11.7090 C.3       9 UNK         0.0264 
     56 CB         30.5223    2.0535  -13.0557 C.3       9 UNK        -0.1955 
     57 C          31.6511    0.3760  -11.5411 C.2       9 UNK         0.5031 
     58 O          32.7078   -0.0080  -12.0438 O.2       9 UNK        -0.5390 
     59 N          30.8497   -0.4003  -10.7968 N.am      10 UNK        -0.4204 
     60 CA         31.1166   -1.7816  -10.3858 C.3       10 UNK         0.0237 
     61 CB         29.9241   -2.2872   -9.5559 C.3       10 UNK        -0.1985 
     62 C          32.4312   -1.9674   -9.6011 C.2       10 UNK         0.4970 
     63 O          33.0173   -3.0478   -9.6756 O.2       10 UNK        -0.4914 
     64 N          32.8695   -0.9211   -8.8895 N.am      11 UNK        -0.4285 
     65 CA         34.1464   -0.8473   -8.1646 C.3       11 UNK         0.1007 
     66 C          34.9661    0.4093   -8.5820 C.2       11 UNK         0.5703 
     67 N          34.7790    0.9454   -9.7838 N.am      11 UNK        -0.7361 
     68 O          35.8059    0.8948   -7.8276 O.2       11 UNK        -0.4986 
     69 C69        33.9420   -0.9894   -6.6279 C.3       12 UNK        -0.0947 
     70 S70        33.5842   -2.7146   -6.1548 S.3       12 UNK        -0.2240 
     71 C71        31.7767   -2.6994   -5.9726 C.3       12 UNK         0.0194 
     72 H72        26.3424   -5.9704    2.5524 H         1 UNK         0.0906 
     73 H73        24.8451   -5.1028    2.2029 H         1 UNK         0.0906 
     74 H74        25.3787   -6.4075    1.1408 H         1 UNK         0.0906 
     75 H75        26.2610   -5.6347   -0.7660 H         1 UNK         0.3140 
     76 H76        28.2126   -3.4602   -0.7451 H         1 UNK         0.1085 
     77 H77        28.4836   -4.1588   -3.2166 H         1 UNK         0.0836 
     78 H78        27.3415   -5.4223   -2.9135 H         1 UNK         0.0836 
     79 H79        31.7304   -5.1677   -1.3832 H         1 UNK         0.0731 
     80 H80        30.6023   -4.3091   -0.3735 H         1 UNK         0.0731 
     81 H81        31.5436   -4.5888   -4.0282 H         1 UNK         0.1312 
     82 H82        31.0594   -0.3801   -4.7192 H         1 UNK         0.1406 
     83 H83        30.2572   -2.0221   -0.8436 H         1 UNK         0.1631 
     84 H84        30.4505    1.1026   -2.9288 H         1 UNK         0.0717 
     85 H85        30.9089    0.5533   -1.3433 H         1 UNK         0.0717 
     86 H86        26.6562    1.5753   -2.4508 H         1 UNK         0.0934 
     87 H87        28.0848    2.5659   -2.4681 H         1 UNK         0.0934 
     88 H88        28.9058    1.5225   -4.5266 H         1 UNK         0.0739 
     89 H89        27.1774   -0.6650   -3.9911 H         1 UNK         0.3093 
     90 H90        26.9599   -1.8682   -7.3757 H         1 UNK         0.0818 
     91 H91        28.5765   -2.8858   -5.0027 H         1 UNK         0.0819 
     92 H92        27.7251   -3.9618   -6.1143 H         1 UNK         0.0819 
     93 H93        29.0102   -2.9214   -6.7004 H         1 UNK         0.0819 
     94 H94        25.9852   -2.5930   -4.7084 H         1 UNK         0.3041 
     95 H95        22.8046   -1.0826   -5.1751 H         1 UNK         0.0784 
     96 H96        22.5641   -3.1859   -6.5036 H         1 UNK         0.0793 
     97 H97        23.5204   -4.0630   -5.3172 H         1 UNK         0.0793 
     98 H98        21.9506   -3.3918   -4.8719 H         1 UNK         0.0793 
     99 H99        23.8208   -2.8399   -3.1578 H         1 UNK         0.3024 
    100 H100       25.3735   -0.3214   -1.1628 H         1 UNK         0.1171 
    101 H101       23.7794   -1.1581    0.5196 H         1 UNK         0.0786 
    102 H102       22.9131   -0.2095   -0.6755 H         1 UNK         0.0786 
    103 H103       22.8242   -1.9652   -0.7243 H         1 UNK         0.0786 
    104 H104       25.2608   -2.8934   -0.3686 H         1 UNK         0.2977 
    105 H105       25.3354    1.2703   -4.7325 H         1 UNK         0.3127 
    106 H106       24.8346    3.9267   -5.5795 H         1 UNK         0.0770 
    107 H107       23.2340    1.3653   -6.1084 H         1 UNK         0.0814 
    108 H108       22.6304    3.0051   -6.3005 H         1 UNK         0.0814 
    109 H109       23.0695    2.4169   -4.7043 H         1 UNK         0.0814 
    110 H110       25.5572    0.9746   -7.4913 H         1 UNK         0.2983 
    111 H111       25.3557    2.2227  -10.0701 H         1 UNK         0.0947 
    112 H112       26.5355    0.1842  -10.8586 H         1 UNK         0.0806 
    113 H113       25.2606   -0.2542   -9.7320 H         1 UNK         0.0806 
    114 H114       26.9429   -0.2587   -9.2077 H         1 UNK         0.0806 
    115 H115       28.0284    1.7571   -7.7982 H         1 UNK         0.3000 
    116 H116       29.9176    2.7292   -7.3722 H         1 UNK         0.0850 
    117 H117       30.5443    4.9567   -8.2537 H         1 UNK         0.0810 
    118 H118       28.8614    4.9357   -7.7495 H         1 UNK         0.0810 
    119 H119       29.2726    4.8760   -9.4627 H         1 UNK         0.0810 
    120 H120       29.4652    2.7216  -10.8983 H         1 UNK         0.3040 
    121 H121       32.1483    2.4438  -11.7075 H         1 UNK         0.0766 
    122 H122       30.3109    3.1077  -13.2359 H         1 UNK         0.0812 
    123 H123       29.5777    1.5098  -13.1002 H         1 UNK         0.0812 
    124 H124       31.1411    1.7028  -13.8830 H         1 UNK         0.0812 
    125 H125       30.0110    0.0230  -10.4286 H         1 UNK         0.3205 
    126 H126       31.1910   -2.3855  -11.2923 H         1 UNK         0.0754 
    127 H127       30.0892   -3.3093   -9.2119 H         1 UNK         0.0769 
    128 H128       29.0043   -2.2891  -10.1412 H         1 UNK         0.0769 
    129 H129       29.7578   -1.6671   -8.6739 H         1 UNK         0.0769 
    130 H130       32.3471   -0.0512   -8.9130 H         1 UNK         0.2981 
    131 H131       34.7859   -1.6714   -8.4853 H         1 UNK         0.0541 
    132 H132       34.1249    0.5384  -10.4386 H         1 UNK         0.3459 
    133 H133       35.3179    1.7546  -10.0473 H         1 UNK         0.3459 
    134 H134       34.8452   -0.7105   -6.0833 H         1 UNK         0.0612 
    135 H135       33.1562   -0.3215   -6.2716 H         1 UNK         0.0612 
    136 H136       31.3864   -3.6506   -6.3372 H         1 UNK         0.0624 
    137 H137       31.3385   -1.9292   -6.6087 H         1 UNK         0.0624 
@<TRIPOS>BOND
     1    1    2 1    
     2    1   72 1    
     3    1   73 1    
     4    1   74 1    
     5    2    3 2    
     6    2    4 am   BACKBONE|DICT|INTERRES
     7    4    5 1    
     8    4   75 1    
     9    5    6 1    
    10    5   35 1    
    11    5   76 1    
    12    6    7 1    
    13    6   77 1    
    14    6   78 1    
    15    7    8 1    
    16    8    9 1    
    17    8   79 1    
    18    8   80 1    
    19    9   10 ar   
    20    9   14 ar   
    21   10   11 ar   
    22   10   81 1    
    23   11   12 ar   
    24   11   71 1    
    25   12   13 ar   
    26   12   82 1    
    27   13   14 ar   
    28   13   15 1    
    29   14   83 1    
    30   15   16 1    
    31   15   84 1    
    32   15   85 1    
    33   16   17 1    
    34   17   18 1    
    35   17   86 1    
    36   17   87 1    
    37   18   19 1    
    38   18   37 1    
    39   18   88 1    
    40   19   20 am   BACKBONE|DICT|INTERRES
    41   19   89 1    
    42   20   21 2    
    43   20   22 1    
    44   22   23 1    
    45   22   24 1    
    46   22   90 1    
    47   23   91 1    
    48   23   92 1    
    49   23   93 1    
    50   24   25 am   BACKBONE|DICT|INTERRES
    51   24   94 1    
    52   25   26 2    
    53   25   27 1    
    54   27   28 1    
    55   27   29 1    
    56   27   95 1    
    57   28   96 1    
    58   28   97 1    
    59   28   98 1    
    60   29   30 am   BACKBONE|DICT|INTERRES
    61   29   99 1    
    62   30   31 2    
    63   30   32 1    
    64   32   33 1    
    65   32   34 1    
    66   32  100 1    
    67   33  101 1    
    68   33  102 1    
    69   33  103 1    
    70   34   35 am   BACKBONE|DICT|INTERRES
    71   34  104 1    
    72   35   36 2    
    73   37   38 2    
    74   37   39 am   BACKBONE|DICT|INTERRES
    75   39   40 1    
    76   39  105 1    
    77   40   41 1    
    78   40   42 1    
    79   40  106 1    
    80   41  107 1    
    81   41  108 1    
    82   41  109 1    
    83   42   43 2    
    84   42   44 am   BACKBONE|DICT|INTERRES
    85   44   45 1    
    86   44  110 1    
    87   45   46 1    
    88   45   47 1    
    89   45  111 1    
    90   46  112 1    
    91   46  113 1    
    92   46  114 1    
    93   47   48 2    
    94   47   49 am   BACKBONE|DICT|INTERRES
    95   49   50 1    
    96   49  115 1    
    97   50   51 1    
    98   50   52 1    
    99   50  116 1    
   100   51  117 1    
   101   51  118 1    
   102   51  119 1    
   103   52   53 2    
   104   52   54 am   BACKBONE|DICT|INTERRES
   105   54   55 1    
   106   54  120 1    
   107   55   56 1    
   108   55   57 1    
   109   55  121 1    
   110   56  122 1    
   111   56  123 1    
   112   56  124 1    
   113   57   58 2    
   114   57   59 am   BACKBONE|DICT|INTERRES
   115   59   60 1    
   116   59  125 1    
   117   60   61 1    
   118   60   62 1    
   119   60  126 1    
   120   61  127 1    
   121   61  128 1    
   122   61  129 1    
   123   62   63 2    
   124   62   64 am   BACKBONE|DICT|INTERRES
   125   64   65 1    
   126   64  130 1    
   127   65   66 1    
   128   65   69 1    
   129   65  131 1    
   130   66   67 am   BACKBONE|DICT|INTERRES
   131   66   68 2    
   132   67  132 1    
   133   67  133 1    
   134   69   70 1    
   135   69  134 1    
   136   69  135 1    
   137   70   71 1    
   138   71  136 1    
   139   71  137 1    
@<TRIPOS>SUBSTRUCTURE
     1 UNK         1 GROUP             0       ****    0 ROOT    
