@<TRIPOS>MOLECULE
3R137
137   139    1
SMALL
USER_CHARGES


@<TRIPOS>ATOM
      1 CA         29.4062   -5.7293   -4.3803 C.3       0 UNK        -0.2020 
      2 C          28.3274   -5.4825   -3.3369 C.2       0 UNK         0.4855 
      3 O          27.2786   -6.1270   -3.3745 O.2       0 UNK        -0.5197 
      4 N          28.5888   -4.5727   -2.3930 N.am      1 UNK        -0.4892 
      5 CA         27.7032   -4.2490   -1.2691 C.3       1 UNK         0.0835 
      6 C6         28.4825   -3.7627   -0.0093 C.3       12 UNK        -0.0855 
      7 S7         30.1105   -4.5655    0.2422 S.3       12 UNK        -0.2931 
      8 C8         31.2784   -3.1673    0.0946 C.3       12 UNK         0.0378 
      9 C9         31.1175   -2.3826   -1.2035 C.ar      12 UNK        -0.0802 
     10 C10        31.6639   -2.8565   -2.4004 C.ar      12 UNK        -0.0944 
     11 C11        31.5199   -2.1264   -3.5871 C.ar      12 UNK        -0.0787 
     12 C12        30.8021   -0.9249   -3.5720 C.ar      12 UNK        -0.0862 
     13 C13        30.2505   -0.4427   -2.3813 C.ar      12 UNK        -0.0733 
     14 C14        30.4330   -1.1639   -1.1996 C.ar      12 UNK        -0.0832 
     15 C15        29.4432    0.8466   -2.3621 C.3       12 UNK         0.0240 
     16 S16        27.6857    0.4826   -2.0558 S.3       12 UNK        -0.2522 
     17 C17        26.8361    1.6583   -3.1548 C.3       12 UNK        -0.0967 
     18 CA         26.9162    1.2665   -4.6512 C.3       5 UNK         0.0660 
     19 N          26.4927   -0.1178   -4.9171 N.am      5 UNK        -0.4015 
     20 C          26.6532   -0.7568   -6.0872 C.2       4 UNK         0.4946 
     21 O          27.1377   -0.2250   -7.0850 O.2       4 UNK        -0.5353 
     22 CA         26.1689   -2.2087   -6.1957 C.3       4 UNK         0.0277 
     23 CB         27.3566   -3.1746   -6.1005 C.3       4 UNK        -0.1981 
     24 N          25.1782   -2.5512   -5.1755 N.am      4 UNK        -0.4209 
     25 C          23.8598   -2.3466   -5.3056 C.2       3 UNK         0.4942 
     26 O          23.3456   -1.8341   -6.3004 O.2       3 UNK        -0.5208 
     27 CA         22.9538   -2.7853   -4.1400 C.3       3 UNK         0.0250 
     28 CB         22.4074   -4.2002   -4.3903 C.3       3 UNK        -0.1990 
     29 N          23.6187   -2.7498   -2.8355 N.am      3 UNK        -0.4232 
     30 C          23.9815   -1.6263   -2.2028 C.2       2 UNK         0.4993 
     31 O          23.7595   -0.4946   -2.6346 O.2       2 UNK        -0.5286 
     32 CA         24.7506   -1.7901   -0.8800 C.3       2 UNK         0.0209 
     33 CB         23.7706   -1.8636    0.3022 C.3       2 UNK        -0.1931 
     34 N          25.6798   -2.9299   -0.8125 N.am      2 UNK        -0.4546 
     35 C          26.6528   -3.2009   -1.6967 C.2       1 UNK         0.5154 
     36 O          26.7550   -2.6321   -2.7861 O.2       1 UNK        -0.5181 
     37 C          26.2014    2.3228   -5.5221 C.2       5 UNK         0.5014 
     38 O          26.7116    3.4367   -5.6484 O.2       5 UNK        -0.5248 
     39 N          25.0762    1.9546   -6.1533 N.am      6 UNK        -0.4434 
     40 CA         24.4125    2.7264   -7.2083 C.3       6 UNK         0.0363 
     41 CB         23.0917    2.0326   -7.5785 C.3       6 UNK        -0.1936 
     42 C          25.2859    2.9286   -8.4655 C.2       6 UNK         0.5081 
     43 O          25.0542    3.8833   -9.2076 O.2       6 UNK        -0.5248 
     44 N          26.2781    2.0525   -8.6719 N.am      7 UNK        -0.4718 
     45 CA         27.2963    2.1427   -9.7128 C.3       7 UNK         0.0273 
     46 CB         26.9518    1.1654  -10.8523 C.3       7 UNK        -0.1935 
     47 C          28.6714    1.8685   -9.0837 C.2       7 UNK         0.5018 
     48 O          29.4287    1.0411   -9.5939 O.2       7 UNK        -0.5186 
     49 N          28.9830    2.5683   -7.9799 N.am      8 UNK        -0.4240 
     50 CA         30.2160    2.4090   -7.1932 C.3       8 UNK         0.0235 
     51 CB         30.2192    3.4031   -6.0208 C.3       8 UNK        -0.2000 
     52 C          31.5197    2.5436   -8.0028 C.2       8 UNK         0.4941 
     53 O          32.4940    1.8591   -7.6918 O.2       8 UNK        -0.5273 
     54 N          31.5008    3.3818   -9.0491 N.am      9 UNK        -0.4262 
     55 CA         32.5954    3.5480  -10.0088 C.3       9 UNK         0.0264 
     56 CB         32.3100    4.7716  -10.8948 C.3       9 UNK        -0.1955 
     57 C          32.8540    2.3024  -10.8793 C.2       9 UNK         0.5031 
     58 O          33.9912    2.1059  -11.3101 O.2       9 UNK        -0.5390 
     59 N          31.8160    1.4883  -11.1224 N.am      10 UNK        -0.4204 
     60 CA         31.9223    0.1993  -11.8083 C.3       10 UNK         0.0237 
     61 CB         30.6116   -0.1098  -12.5514 C.3       10 UNK        -0.1985 
     62 C          32.2693   -0.9247  -10.8198 C.2       10 UNK         0.4970 
     63 O          33.0226   -1.8275  -11.1862 O.2       10 UNK        -0.4914 
     64 N          31.7306   -0.8471   -9.5931 N.am      11 UNK        -0.4285 
     65 CA         32.0609   -1.7440   -8.4755 C.3       11 UNK         0.1007 
     66 C          33.5597   -1.6765   -8.0652 C.2       11 UNK         0.5703 
     67 N          34.1158   -0.4876   -7.8669 N.am      11 UNK        -0.7361 
     68 O          34.2202   -2.7043   -7.9357 O.2       11 UNK        -0.4986 
     69 C69        31.1213   -1.5121   -7.2604 C.3       12 UNK        -0.0947 
     70 S70        30.9870   -2.9871   -6.1936 S.3       12 UNK        -0.2240 
     71 C71        32.1824   -2.6165   -4.8690 C.3       12 UNK         0.0194 
     72 H72        29.6797   -6.7839   -4.3939 H         1 UNK         0.0906 
     73 H73        29.0474   -5.4593   -5.3725 H         1 UNK         0.0906 
     74 H74        30.3071   -5.1519   -4.1744 H         1 UNK         0.0906 
     75 H75        29.4445   -4.0356   -2.4262 H         1 UNK         0.3140 
     76 H76        27.1626   -5.1577   -0.9945 H         1 UNK         0.1085 
     77 H77        27.8847   -3.9588    0.8824 H         1 UNK         0.0836 
     78 H78        28.6144   -2.6816   -0.0171 H         1 UNK         0.0836 
     79 H79        32.2970   -3.5524    0.1612 H         1 UNK         0.0731 
     80 H80        31.1501   -2.5091    0.9555 H         1 UNK         0.0731 
     81 H81        32.2141   -3.7879   -2.4012 H         1 UNK         0.1312 
     82 H82        30.6747   -0.3644   -4.4869 H         1 UNK         0.1406 
     83 H83        30.0122   -0.7832   -0.2787 H         1 UNK         0.1631 
     84 H84        29.5679    1.3879   -3.3000 H         1 UNK         0.0717 
     85 H85        29.8156    1.5055   -1.5765 H         1 UNK         0.0717 
     86 H86        25.7936    1.7142   -2.8344 H         1 UNK         0.0934 
     87 H87        27.2591    2.6515   -2.9894 H         1 UNK         0.0934 
     88 H88        27.9646    1.3115   -4.9491 H         1 UNK         0.0739 
     89 H89        26.1352   -0.6367   -4.1255 H         1 UNK         0.3093 
     90 H90        25.7194   -2.3318   -7.1835 H         1 UNK         0.0818 
     91 H91        27.9168   -3.0363   -5.1748 H         1 UNK         0.0819 
     92 H92        27.0297   -4.2131   -6.1490 H         1 UNK         0.0819 
     93 H93        28.0499   -3.0131   -6.9267 H         1 UNK         0.0819 
     94 H94        25.5479   -2.8937   -4.2927 H         1 UNK         0.3041 
     95 H95        22.1083   -2.0945   -4.1064 H         1 UNK         0.0784 
     96 H96        21.8819   -4.2520   -5.3451 H         1 UNK         0.0793 
     97 H97        23.2058   -4.9431   -4.4173 H         1 UNK         0.0793 
     98 H98        21.6984   -4.4952   -3.6165 H         1 UNK         0.0793 
     99 H99        23.8512   -3.6359   -2.4105 H         1 UNK         0.3024 
    100 H100       25.3526   -0.8872   -0.7601 H         1 UNK         0.1171 
    101 H101       24.2958   -1.8344    1.2571 H         1 UNK         0.0786 
    102 H102       23.0798   -1.0191    0.2909 H         1 UNK         0.0786 
    103 H103       23.1718   -2.7749    0.2745 H         1 UNK         0.0786 
    104 H104       25.6554   -3.4620    0.0456 H         1 UNK         0.2977 
    105 H105       24.7221    1.0237   -5.9849 H         1 UNK         0.3127 
    106 H106       24.1841    3.7156   -6.8061 H         1 UNK         0.0770 
    107 H107       23.2588    1.0254   -7.9631 H         1 UNK         0.0814 
    108 H108       22.5593    2.5921   -8.3491 H         1 UNK         0.0814 
    109 H109       22.4269    1.9573   -6.7177 H         1 UNK         0.0814 
    110 H110       26.4200    1.2931   -8.0078 H         1 UNK         0.2983 
    111 H111       27.3337    3.1544  -10.1222 H         1 UNK         0.0947 
    112 H112       27.6787    1.2363  -11.6623 H         1 UNK         0.0806 
    113 H113       25.9717    1.3820  -11.2773 H         1 UNK         0.0806 
    114 H114       26.9463    0.1314  -10.5047 H         1 UNK         0.0806 
    115 H115       28.2921    3.2084   -7.6110 H         1 UNK         0.3000 
    116 H116       30.1958    1.3991   -6.7803 H         1 UNK         0.0850 
    117 H117       31.1256    3.2984   -5.4224 H         1 UNK         0.0810 
    118 H118       29.3764    3.2399   -5.3510 H         1 UNK         0.0810 
    119 H119       30.1752    4.4361   -6.3677 H         1 UNK         0.0810 
    120 H120       30.6584    3.9113   -9.2204 H         1 UNK         0.3040 
    121 H121       33.5080    3.7428   -9.4413 H         1 UNK         0.0766 
    122 H122       32.2106    5.6794  -10.2994 H         1 UNK         0.0812 
    123 H123       31.3951    4.6467  -11.4753 H         1 UNK         0.0812 
    124 H124       33.1238    4.9386  -11.6021 H         1 UNK         0.0812 
    125 H125       30.9235    1.6808  -10.6787 H         1 UNK         0.3205 
    126 H126       32.7212    0.2519  -12.5513 H         1 UNK         0.0754 
    127 H127       30.7029   -1.0306  -13.1289 H         1 UNK         0.0769 
    128 H128       30.3537    0.6866  -13.2497 H         1 UNK         0.0769 
    129 H129       29.7732   -0.2407  -11.8669 H         1 UNK         0.0769 
    130 H130       31.0684   -0.1045   -9.4000 H         1 UNK         0.2981 
    131 H131       31.8776   -2.7541   -8.8475 H         1 UNK         0.0541 
    132 H132       33.5550    0.3606   -7.9140 H         1 UNK         0.3459 
    133 H133       35.0875   -0.4327   -7.6094 H         1 UNK         0.3459 
    134 H134       31.4334   -0.6453   -6.6771 H         1 UNK         0.0612 
    135 H135       30.1106   -1.2879   -7.6066 H         1 UNK         0.0612 
    136 H136       32.9054   -1.8722   -5.2037 H         1 UNK         0.0624 
    137 H137       32.7564   -3.5239   -4.6761 H         1 UNK         0.0624 
@<TRIPOS>BOND
     1    1    2 1    
     2    1   72 1    
     3    1   73 1    
     4    1   74 1    
     5    2    3 2    
     6    2    4 am   BACKBONE|DICT|INTERRES
     7    4    5 1    
     8    4   75 1    
     9    5    6 1    
    10    5   35 1    
    11    5   76 1    
    12    6    7 1    
    13    6   77 1    
    14    6   78 1    
    15    7    8 1    
    16    8    9 1    
    17    8   79 1    
    18    8   80 1    
    19    9   10 ar   
    20    9   14 ar   
    21   10   11 ar   
    22   10   81 1    
    23   11   12 ar   
    24   11   71 1    
    25   12   13 ar   
    26   12   82 1    
    27   13   14 ar   
    28   13   15 1    
    29   14   83 1    
    30   15   16 1    
    31   15   84 1    
    32   15   85 1    
    33   16   17 1    
    34   17   18 1    
    35   17   86 1    
    36   17   87 1    
    37   18   19 1    
    38   18   37 1    
    39   18   88 1    
    40   19   20 am   BACKBONE|DICT|INTERRES
    41   19   89 1    
    42   20   21 2    
    43   20   22 1    
    44   22   23 1    
    45   22   24 1    
    46   22   90 1    
    47   23   91 1    
    48   23   92 1    
    49   23   93 1    
    50   24   25 am   BACKBONE|DICT|INTERRES
    51   24   94 1    
    52   25   26 2    
    53   25   27 1    
    54   27   28 1    
    55   27   29 1    
    56   27   95 1    
    57   28   96 1    
    58   28   97 1    
    59   28   98 1    
    60   29   30 am   BACKBONE|DICT|INTERRES
    61   29   99 1    
    62   30   31 2    
    63   30   32 1    
    64   32   33 1    
    65   32   34 1    
    66   32  100 1    
    67   33  101 1    
    68   33  102 1    
    69   33  103 1    
    70   34   35 am   BACKBONE|DICT|INTERRES
    71   34  104 1    
    72   35   36 2    
    73   37   38 2    
    74   37   39 am   BACKBONE|DICT|INTERRES
    75   39   40 1    
    76   39  105 1    
    77   40   41 1    
    78   40   42 1    
    79   40  106 1    
    80   41  107 1    
    81   41  108 1    
    82   41  109 1    
    83   42   43 2    
    84   42   44 am   BACKBONE|DICT|INTERRES
    85   44   45 1    
    86   44  110 1    
    87   45   46 1    
    88   45   47 1    
    89   45  111 1    
    90   46  112 1    
    91   46  113 1    
    92   46  114 1    
    93   47   48 2    
    94   47   49 am   BACKBONE|DICT|INTERRES
    95   49   50 1    
    96   49  115 1    
    97   50   51 1    
    98   50   52 1    
    99   50  116 1    
   100   51  117 1    
   101   51  118 1    
   102   51  119 1    
   103   52   53 2    
   104   52   54 am   BACKBONE|DICT|INTERRES
   105   54   55 1    
   106   54  120 1    
   107   55   56 1    
   108   55   57 1    
   109   55  121 1    
   110   56  122 1    
   111   56  123 1    
   112   56  124 1    
   113   57   58 2    
   114   57   59 am   BACKBONE|DICT|INTERRES
   115   59   60 1    
   116   59  125 1    
   117   60   61 1    
   118   60   62 1    
   119   60  126 1    
   120   61  127 1    
   121   61  128 1    
   122   61  129 1    
   123   62   63 2    
   124   62   64 am   BACKBONE|DICT|INTERRES
   125   64   65 1    
   126   64  130 1    
   127   65   66 1    
   128   65   69 1    
   129   65  131 1    
   130   66   67 am   BACKBONE|DICT|INTERRES
   131   66   68 2    
   132   67  132 1    
   133   67  133 1    
   134   69   70 1    
   135   69  134 1    
   136   69  135 1    
   137   70   71 1    
   138   71  136 1    
   139   71  137 1    
@<TRIPOS>SUBSTRUCTURE
     1 UNK         1 GROUP             0       ****    0 ROOT    
