@<TRIPOS>MOLECULE
3R137
137   139    1
SMALL
USER_CHARGES


@<TRIPOS>ATOM
      1 CA         27.1438   -3.5166    2.0959 C.3       0 UNK        -0.2020 
      2 C          27.9123   -4.2108    0.9743 C.2       0 UNK         0.4855 
      3 O          27.9920   -5.4371    0.9681 O.2       0 UNK        -0.5197 
      4 N          28.5001   -3.4888    0.0094 N.am      1 UNK        -0.4892 
      5 CA         28.4773   -2.0287   -0.1618 C.3       1 UNK         0.0835 
      6 C6         29.5112   -1.5577   -1.2126 C.3       12 UNK        -0.0855 
      7 S7         31.2425   -1.9577   -0.7859 S.3       12 UNK        -0.2931 
      8 C8         31.5389   -3.5621   -1.6083 C.3       12 UNK         0.0378 
      9 C9         31.1198   -3.5707   -3.0726 C.ar      12 UNK        -0.0802 
     10 C10        31.8378   -2.8335   -4.0173 C.ar      12 UNK        -0.0944 
     11 C11        31.4511   -2.8221   -5.3659 C.ar      12 UNK        -0.0787 
     12 C12        30.3315   -3.5694   -5.7531 C.ar      12 UNK        -0.0862 
     13 C13        29.6125   -4.3217   -4.8185 C.ar      12 UNK        -0.0733 
     14 C14        30.0125   -4.3178   -3.4810 C.ar      12 UNK        -0.0832 
     15 C15        28.4213   -5.1682   -5.2425 C.3       12 UNK         0.0240 
     16 S16        26.8821   -4.1970   -5.3062 S.3       12 UNK        -0.2522 
     17 C17        26.7067   -3.8972   -7.0994 C.3       12 UNK        -0.0967 
     18 CA         26.3765   -2.4407   -7.5036 C.3       5 UNK         0.0660 
     19 N          25.1444   -1.9300   -6.8980 N.am      5 UNK        -0.4015 
     20 C          24.1529   -1.3590   -7.5976 C.2       4 UNK         0.4946 
     21 O          24.1415   -1.2667   -8.8255 O.2       4 UNK        -0.5353 
     22 CA         22.9675   -0.7738   -6.8101 C.3       4 UNK         0.0277 
     23 CB         21.8876   -1.8462   -6.5930 C.3       4 UNK        -0.1981 
     24 N          23.3294   -0.1835   -5.5207 N.am      4 UNK        -0.4209 
     25 C          24.2069    0.8134   -5.3355 C.2       3 UNK         0.4942 
     26 O          24.8413    1.3563   -6.2391 O.2       3 UNK        -0.5208 
     27 CA         24.4556    1.2450   -3.8810 C.3       3 UNK         0.0250 
     28 CB         23.4621    2.3440   -3.4720 C.3       3 UNK        -0.1990 
     29 N          24.4036    0.1479   -2.9057 N.am      3 UNK        -0.4232 
     30 C          25.1368   -0.9732   -2.9612 C.2       2 UNK         0.4993 
     31 O          25.8888   -1.2591   -3.8965 O.2       2 UNK        -0.5286 
     32 CA         24.9820   -1.9592   -1.7942 C.3       2 UNK         0.0209 
     33 CB         24.2444   -3.2275   -2.2528 C.3       2 UNK        -0.1931 
     34 N          26.2913   -2.3274   -1.2567 N.am      2 UNK        -0.4546 
     35 C          27.0812   -1.5019   -0.5546 C.2       1 UNK         0.5154 
     36 O          26.7442   -0.3700   -0.2054 O.2       1 UNK        -0.5181 
     37 C          27.5521   -1.4763   -7.2793 C.2       5 UNK         0.5014 
     38 O          28.3728   -1.3341   -8.1869 O.2       5 UNK        -0.5248 
     39 N          27.6132   -0.8051   -6.1181 N.am      6 UNK        -0.4434 
     40 CA         28.6855    0.1310   -5.7738 C.3       6 UNK         0.0363 
     41 CB         28.5571    0.5773   -4.3121 C.3       6 UNK        -0.1936 
     42 C          28.7616    1.3491   -6.7052 C.2       6 UNK         0.5081 
     43 O          29.8683    1.7681   -7.0415 O.2       6 UNK        -0.5248 
     44 N          27.6096    1.8864   -7.1305 N.am      7 UNK        -0.4718 
     45 CA         27.5526    2.9781   -8.1063 C.3       7 UNK         0.0273 
     46 CB         26.1798    3.6655   -8.0429 C.3       7 UNK        -0.1935 
     47 C          27.8482    2.4972   -9.5361 C.2       7 UNK         0.5018 
     48 O          28.4869    3.2254  -10.2953 O.2       7 UNK        -0.5186 
     49 N          27.3865    1.2845   -9.8744 N.am      8 UNK        -0.4240 
     50 CA         27.5328    0.6763  -11.1988 C.3       8 UNK         0.0235 
     51 CB         26.5857   -0.5277  -11.3255 C.3       8 UNK        -0.2000 
     52 C          28.9805    0.2673  -11.5079 C.2       8 UNK         0.4941 
     53 O          29.4784    0.5789  -12.5901 O.2       8 UNK        -0.5273 
     54 N          29.6331   -0.4044  -10.5497 N.am      9 UNK        -0.4262 
     55 CA         31.0289   -0.8432  -10.6456 C.3       9 UNK         0.0264 
     56 CB         31.1824   -2.1856   -9.9114 C.3       9 UNK        -0.1955 
     57 C          32.0382    0.2160  -10.1555 C.2       9 UNK         0.5031 
     58 O          33.2412   -0.0447  -10.1980 O.2       9 UNK        -0.5390 
     59 N          31.5424    1.3902   -9.7361 N.am      10 UNK        -0.4204 
     60 CA         32.2864    2.5921   -9.3407 C.3       10 UNK         0.0237 
     61 CB         33.0498    3.1846  -10.5452 C.3       10 UNK        -0.1985 
     62 C          33.1739    2.4016   -8.0945 C.2       10 UNK         0.4970 
     63 O          34.2887    2.9264   -8.0463 O.2       10 UNK        -0.4914 
     64 N          32.6430    1.6916   -7.0937 N.am      11 UNK        -0.4285 
     65 CA         33.1906    1.6447   -5.7293 C.3       11 UNK         0.1007 
     66 C          32.6771    2.8181   -4.8487 C.2       11 UNK         0.5703 
     67 N          31.5363    3.4256   -5.1589 N.am      11 UNK        -0.7361 
     68 O          33.3304    3.1886   -3.8766 O.2       11 UNK        -0.4986 
     69 C69        32.9175    0.2901   -5.0293 C.3       12 UNK        -0.0947 
     70 S70        33.6821   -1.1154   -5.9034 S.3       12 UNK        -0.2240 
     71 C71        32.2039   -2.0375   -6.4457 C.3       12 UNK         0.0194 
     72 H72        27.7063   -2.6837    2.5150 H         1 UNK         0.0906 
     73 H73        26.1829   -3.1504    1.7363 H         1 UNK         0.0906 
     74 H74        26.9476   -4.2161    2.9084 H         1 UNK         0.0906 
     75 H75        29.0260   -3.9851   -0.6924 H         1 UNK         0.3140 
     76 H76        28.7427   -1.5662    0.7908 H         1 UNK         0.1085 
     77 H77        29.4667   -0.4711   -1.3139 H         1 UNK         0.0836 
     78 H78        29.2628   -1.9488   -2.1990 H         1 UNK         0.0836 
     79 H79        31.0280   -4.3493   -1.0528 H         1 UNK         0.0731 
     80 H80        32.6026   -3.7952   -1.5419 H         1 UNK         0.0731 
     81 H81        32.6938   -2.2680   -3.6801 H         1 UNK         0.1312 
     82 H82        30.0216   -3.5714   -6.7893 H         1 UNK         0.1406 
     83 H83        29.4585   -4.9027   -2.7600 H         1 UNK         0.1631 
     84 H84        28.2763   -5.9842   -4.5328 H         1 UNK         0.0717 
     85 H85        28.6219   -5.6505   -6.1999 H         1 UNK         0.0717 
     86 H86        27.6062   -4.2223   -7.6250 H         1 UNK         0.0934 
     87 H87        25.9137   -4.5540   -7.4601 H         1 UNK         0.0934 
     88 H88        26.2468   -2.4746   -8.5868 H         1 UNK         0.0739 
     89 H89        25.0992   -1.9449   -5.8865 H         1 UNK         0.3093 
     90 H90        22.5388    0.0247   -7.4195 H         1 UNK         0.0818 
     91 H91        20.9937   -1.4239   -6.1334 H         1 UNK         0.0819 
     92 H92        21.5815   -2.2891   -7.5420 H         1 UNK         0.0819 
     93 H93        22.2441   -2.6564   -5.9556 H         1 UNK         0.0819 
     94 H94        22.8720   -0.5633   -4.7051 H         1 UNK         0.3041 
     95 H95        25.4588    1.6698   -3.8372 H         1 UNK         0.0784 
     96 H96        23.4953    3.1800   -4.1725 H         1 UNK         0.0793 
     97 H97        22.4355    1.9759   -3.4525 H         1 UNK         0.0793 
     98 H98        23.6954    2.7436   -2.4849 H         1 UNK         0.0793 
     99 H99        23.8087    0.2963   -2.1030 H         1 UNK         0.3024 
    100 H100       24.4024   -1.4894   -0.9962 H         1 UNK         0.1171 
    101 H101       23.2544   -2.9856   -2.6416 H         1 UNK         0.0786 
    102 H102       24.7866   -3.7469   -3.0440 H         1 UNK         0.0786 
    103 H103       24.1060   -3.9263   -1.4276 H         1 UNK         0.0786 
    104 H104       26.6572   -3.2285   -1.5272 H         1 UNK         0.2977 
    105 H105       26.9309   -0.9983   -5.3865 H         1 UNK         0.3127 
    106 H106       29.6244   -0.4148   -5.8712 H         1 UNK         0.0770 
    107 H107       27.6662    1.1821   -4.1517 H         1 UNK         0.0814 
    108 H108       29.4180    1.1748   -4.0093 H         1 UNK         0.0814 
    109 H109       28.5021   -0.2801   -3.6443 H         1 UNK         0.0814 
    110 H110       26.7225    1.5205   -6.7932 H         1 UNK         0.2983 
    111 H111       28.3110    3.7190   -7.8422 H         1 UNK         0.0947 
    112 H112       26.1420    4.5228   -8.7162 H         1 UNK         0.0806 
    113 H113       25.9650    4.0309   -7.0385 H         1 UNK         0.0806 
    114 H114       25.3743    2.9890   -8.3315 H         1 UNK         0.0806 
    115 H115       26.9004    0.7459   -9.1724 H         1 UNK         0.3000 
    116 H116       27.2332    1.4191  -11.9417 H         1 UNK         0.0850 
    117 H117       26.8300   -1.3139  -10.6111 H         1 UNK         0.0810 
    118 H118       26.6443   -0.9657  -12.3228 H         1 UNK         0.0810 
    119 H119       25.5479   -0.2372  -11.1603 H         1 UNK         0.0810 
    120 H120       29.1400   -0.6495   -9.6905 H         1 UNK         0.3040 
    121 H121       31.2741   -1.0240  -11.6943 H         1 UNK         0.0766 
    122 H122       30.7971   -2.1348   -8.8961 H         1 UNK         0.0812 
    123 H123       32.2257   -2.4998   -9.8589 H         1 UNK         0.0812 
    124 H124       30.6345   -2.9745  -10.4265 H         1 UNK         0.0812 
    125 H125       30.5362    1.4815   -9.7159 H         1 UNK         0.3205 
    126 H126       31.5287    3.3217   -9.0501 H         1 UNK         0.0754 
    127 H127       33.4870    4.1520  -10.2950 H         1 UNK         0.0769 
    128 H128       32.3863    3.3416  -11.3957 H         1 UNK         0.0769 
    129 H129       33.8630    2.5342  -10.8690 H         1 UNK         0.0769 
    130 H130       31.6770    1.3928   -7.1917 H         1 UNK         0.2981 
    131 H131       34.2747    1.7601   -5.7862 H         1 UNK         0.0541 
    132 H132       30.9710    3.0865   -5.9272 H         1 UNK         0.3459 
    133 H133       31.2136    4.1917   -4.5901 H         1 UNK         0.3459 
    134 H134       31.8444    0.1242   -4.9212 H         1 UNK         0.0612 
    135 H135       33.3243    0.2958   -4.0163 H         1 UNK         0.0612 
    136 H136       32.5207   -2.7376   -7.2194 H         1 UNK         0.0624 
    137 H137       31.5216   -1.3320   -6.9194 H         1 UNK         0.0624 
@<TRIPOS>BOND
     1    1    2 1    
     2    1   72 1    
     3    1   73 1    
     4    1   74 1    
     5    2    3 2    
     6    2    4 am   BACKBONE|DICT|INTERRES
     7    4    5 1    
     8    4   75 1    
     9    5    6 1    
    10    5   35 1    
    11    5   76 1    
    12    6    7 1    
    13    6   77 1    
    14    6   78 1    
    15    7    8 1    
    16    8    9 1    
    17    8   79 1    
    18    8   80 1    
    19    9   10 ar   
    20    9   14 ar   
    21   10   11 ar   
    22   10   81 1    
    23   11   12 ar   
    24   11   71 1    
    25   12   13 ar   
    26   12   82 1    
    27   13   14 ar   
    28   13   15 1    
    29   14   83 1    
    30   15   16 1    
    31   15   84 1    
    32   15   85 1    
    33   16   17 1    
    34   17   18 1    
    35   17   86 1    
    36   17   87 1    
    37   18   19 1    
    38   18   37 1    
    39   18   88 1    
    40   19   20 am   BACKBONE|DICT|INTERRES
    41   19   89 1    
    42   20   21 2    
    43   20   22 1    
    44   22   23 1    
    45   22   24 1    
    46   22   90 1    
    47   23   91 1    
    48   23   92 1    
    49   23   93 1    
    50   24   25 am   BACKBONE|DICT|INTERRES
    51   24   94 1    
    52   25   26 2    
    53   25   27 1    
    54   27   28 1    
    55   27   29 1    
    56   27   95 1    
    57   28   96 1    
    58   28   97 1    
    59   28   98 1    
    60   29   30 am   BACKBONE|DICT|INTERRES
    61   29   99 1    
    62   30   31 2    
    63   30   32 1    
    64   32   33 1    
    65   32   34 1    
    66   32  100 1    
    67   33  101 1    
    68   33  102 1    
    69   33  103 1    
    70   34   35 am   BACKBONE|DICT|INTERRES
    71   34  104 1    
    72   35   36 2    
    73   37   38 2    
    74   37   39 am   BACKBONE|DICT|INTERRES
    75   39   40 1    
    76   39  105 1    
    77   40   41 1    
    78   40   42 1    
    79   40  106 1    
    80   41  107 1    
    81   41  108 1    
    82   41  109 1    
    83   42   43 2    
    84   42   44 am   BACKBONE|DICT|INTERRES
    85   44   45 1    
    86   44  110 1    
    87   45   46 1    
    88   45   47 1    
    89   45  111 1    
    90   46  112 1    
    91   46  113 1    
    92   46  114 1    
    93   47   48 2    
    94   47   49 am   BACKBONE|DICT|INTERRES
    95   49   50 1    
    96   49  115 1    
    97   50   51 1    
    98   50   52 1    
    99   50  116 1    
   100   51  117 1    
   101   51  118 1    
   102   51  119 1    
   103   52   53 2    
   104   52   54 am   BACKBONE|DICT|INTERRES
   105   54   55 1    
   106   54  120 1    
   107   55   56 1    
   108   55   57 1    
   109   55  121 1    
   110   56  122 1    
   111   56  123 1    
   112   56  124 1    
   113   57   58 2    
   114   57   59 am   BACKBONE|DICT|INTERRES
   115   59   60 1    
   116   59  125 1    
   117   60   61 1    
   118   60   62 1    
   119   60  126 1    
   120   61  127 1    
   121   61  128 1    
   122   61  129 1    
   123   62   63 2    
   124   62   64 am   BACKBONE|DICT|INTERRES
   125   64   65 1    
   126   64  130 1    
   127   65   66 1    
   128   65   69 1    
   129   65  131 1    
   130   66   67 am   BACKBONE|DICT|INTERRES
   131   66   68 2    
   132   67  132 1    
   133   67  133 1    
   134   69   70 1    
   135   69  134 1    
   136   69  135 1    
   137   70   71 1    
   138   71  136 1    
   139   71  137 1    
@<TRIPOS>SUBSTRUCTURE
     1 UNK         1 GROUP             0       ****    0 ROOT    
