@<TRIPOS>MOLECULE
3R137
137   139    1
SMALL
USER_CHARGES


@<TRIPOS>ATOM
      1 CA         23.6459   -6.2174   -3.8724 C.3       0 UNK        -0.2020 
      2 C          24.3993   -5.3185   -2.9041 C.2       0 UNK         0.4855 
      3 O          23.7823   -4.4914   -2.2323 O.2       0 UNK        -0.5197 
      4 N          25.7281   -5.4832   -2.8374 N.am      1 UNK        -0.4892 
      5 CA         26.6832   -4.7631   -1.9826 C.3       1 UNK         0.0835 
      6 C6         28.1172   -5.3152   -2.2267 C.3       12 UNK        -0.0855 
      7 S7         29.4982   -4.3545   -1.5077 S.3       12 UNK        -0.2931 
      8 C8         30.2476   -3.7082   -3.0411 C.3       12 UNK         0.0378 
      9 C9         31.0244   -2.4163   -2.8377 C.ar      12 UNK        -0.0802 
     10 C10        32.3097   -2.2796   -3.3682 C.ar      12 UNK        -0.0944 
     11 C11        32.9872   -1.0592   -3.2851 C.ar      12 UNK        -0.0787 
     12 C12        32.3765    0.0241   -2.6445 C.ar      12 UNK        -0.0862 
     13 C13        31.0982   -0.1057   -2.0927 C.ar      12 UNK        -0.0733 
     14 C14        30.4298   -1.3292   -2.1919 C.ar      12 UNK        -0.0832 
     15 C15        30.4449    1.0730   -1.3850 C.3       12 UNK         0.0240 
     16 S16        29.6068    2.1980   -2.5480 S.3       12 UNK        -0.2522 
     17 C17        28.1274    1.2387   -3.0151 C.3       12 UNK        -0.0967 
     18 CA         27.9385    1.1580   -4.5527 C.3       5 UNK         0.0660 
     19 N          27.3743   -0.1265   -4.9787 N.am      5 UNK        -0.4015 
     20 C          27.2372   -0.5207   -6.2536 C.2       4 UNK         0.4946 
     21 O          27.6833    0.1016   -7.2182 O.2       4 UNK        -0.5353 
     22 CA         26.4161   -1.7981   -6.4971 C.3       4 UNK         0.0277 
     23 CB         27.3135   -3.0459   -6.4866 C.3       4 UNK        -0.1981 
     24 N          25.3367   -1.9450   -5.5154 N.am      4 UNK        -0.4209 
     25 C          24.2202   -1.1995   -5.5154 C.2       3 UNK         0.4942 
     26 O          23.9611   -0.3666   -6.3823 O.2       3 UNK        -0.5208 
     27 CA         23.2520   -1.3681   -4.3304 C.3       3 UNK         0.0250 
     28 CB         22.2448   -2.4938   -4.6074 C.3       3 UNK        -0.1990 
     29 N          23.9409   -1.6116   -3.0598 N.am      3 UNK        -0.4232 
     30 C          24.7314   -0.7099   -2.4572 C.2       2 UNK         0.4993 
     31 O          24.9029    0.4319   -2.8826 O.2       2 UNK        -0.5286 
     32 CA         25.5138   -1.1605   -1.2101 C.3       2 UNK         0.0209 
     33 CB         24.7307   -0.8138    0.0653 C.3       2 UNK        -0.1931 
     34 N          25.8588   -2.5858   -1.1977 N.am      2 UNK        -0.4546 
     35 C          26.5450   -3.2309   -2.1527 C.2       1 UNK         0.5154 
     36 O          26.9909   -2.6746   -3.1590 O.2       1 UNK        -0.5181 
     37 C          27.0928    2.3370   -5.0776 C.2       5 UNK         0.5014 
     38 O          27.6369    3.2430   -5.7088 O.2       5 UNK        -0.5248 
     39 N          25.7714    2.2764   -4.8482 N.am      6 UNK        -0.4434 
     40 CA         24.7839    3.2543   -5.3165 C.3       6 UNK         0.0363 
     41 CB         23.4072    2.9161   -4.7237 C.3       6 UNK        -0.1936 
     42 C          24.7030    3.3573   -6.8499 C.2       6 UNK         0.5081 
     43 O          24.5481    4.4605   -7.3739 O.2       6 UNK        -0.5248 
     44 N          24.8445    2.2188   -7.5428 N.am      7 UNK        -0.4718 
     45 CA         24.9375    2.1337   -9.0041 C.3       7 UNK         0.0273 
     46 CB         24.6768    0.6820   -9.4381 C.3       7 UNK        -0.1935 
     47 C          26.2830    2.6261   -9.5748 C.2       7 UNK         0.5018 
     48 O          26.3828    2.7839  -10.7924 O.2       7 UNK        -0.5186 
     49 N          27.2812    2.8470   -8.7050 N.am      8 UNK        -0.4240 
     50 CA         28.6580    3.2535   -9.0000 C.3       8 UNK         0.0235 
     51 CB         28.7001    4.6812   -9.5865 C.3       8 UNK        -0.2000 
     52 C          29.4050    2.2162   -9.8583 C.2       8 UNK         0.4941 
     53 O          30.0275    2.5762  -10.8607 O.2       8 UNK        -0.5273 
     54 N          29.3207    0.9407   -9.4527 N.am      9 UNK        -0.4262 
     55 CA         30.0268   -0.1804  -10.0768 C.3       9 UNK         0.0264 
     56 CB         29.5447   -1.4935   -9.4396 C.3       9 UNK        -0.1955 
     57 C          31.5550   -0.0544   -9.9414 C.2       9 UNK         0.5031 
     58 O          32.0468    0.4627   -8.9339 O.2       9 UNK        -0.5390 
     59 N          32.2815   -0.5658  -10.9428 N.am      10 UNK        -0.4204 
     60 CA         33.7453   -0.5840  -11.0010 C.3       10 UNK         0.0237 
     61 CB         34.1852   -0.7251  -12.4708 C.3       10 UNK        -0.1985 
     62 C          34.3288   -1.6891  -10.1001 C.2       10 UNK         0.4970 
     63 O          34.8481   -2.6875  -10.6024 O.2       10 UNK        -0.4914 
     64 N          34.2027   -1.4993   -8.7826 N.am      11 UNK        -0.4285 
     65 CA         34.6729   -2.4230   -7.7398 C.3       11 UNK         0.1007 
     66 C          36.2191   -2.5240   -7.5719 C.2       11 UNK         0.5703 
     67 N          37.0151   -1.6485   -8.1749 N.am      11 UNK        -0.7361 
     68 O          36.7040   -3.4244   -6.8905 O.2       11 UNK        -0.4986 
     69 C69        33.9455   -2.1659   -6.3946 C.3       12 UNK        -0.0947 
     70 S70        34.2759   -0.5174   -5.6748 S.3       12 UNK        -0.2240 
     71 C71        34.3720   -0.9050   -3.8979 C.3       12 UNK         0.0194 
     72 H72        24.1713   -7.1579   -4.0370 H         1 UNK         0.0906 
     73 H73        22.6567   -6.4519   -3.4798 H         1 UNK         0.0906 
     74 H74        23.5229   -5.7218   -4.8345 H         1 UNK         0.0906 
     75 H75        26.1462   -6.1762   -3.4419 H         1 UNK         0.3140 
     76 H76        26.4242   -4.9983   -0.9482 H         1 UNK         0.1085 
     77 H77        28.1823   -6.3280   -1.8257 H         1 UNK         0.0836 
     78 H78        28.2908   -5.4250   -3.2987 H         1 UNK         0.0836 
     79 H79        29.4698   -3.5019   -3.7763 H         1 UNK         0.0731 
     80 H80        30.8817   -4.4842   -3.4727 H         1 UNK         0.0731 
     81 H81        32.7722   -3.1162   -3.8722 H         1 UNK         0.1312 
     82 H82        32.8930    0.9722   -2.5805 H         1 UNK         0.1406 
     83 H83        29.4377   -1.4419   -1.7775 H         1 UNK         0.1631 
     84 H84        31.2050    1.6367   -0.8418 H         1 UNK         0.0717 
     85 H85        29.7335    0.7265   -0.6336 H         1 UNK         0.0717 
     86 H86        28.2173    0.2369   -2.6025 H         1 UNK         0.0934 
     87 H87        27.2602    1.6711   -2.5118 H         1 UNK         0.0934 
     88 H88        28.9197    1.2213   -5.0293 H         1 UNK         0.0739 
     89 H89        27.0145   -0.7356   -4.2551 H         1 UNK         0.3093 
     90 H90        25.9662   -1.7206   -7.4886 H         1 UNK         0.0818 
     91 H91        26.7342   -3.9531   -6.6578 H         1 UNK         0.0819 
     92 H92        28.0647   -2.9897   -7.2744 H         1 UNK         0.0819 
     93 H93        27.8455   -3.1609   -5.5433 H         1 UNK         0.0819 
     94 H94        25.5247   -2.5511   -4.7263 H         1 UNK         0.3041 
     95 H95        22.6927   -0.4357   -4.2284 H         1 UNK         0.0784 
     96 H96        21.6679   -2.2851   -5.5094 H         1 UNK         0.0793 
     97 H97        22.7409   -3.4521   -4.7544 H         1 UNK         0.0793 
     98 H98        21.5358   -2.6048   -3.7868 H         1 UNK         0.0793 
     99 H99        23.8589   -2.5413   -2.6561 H         1 UNK         0.3024 
    100 H100       26.4496   -0.5998   -1.1963 H         1 UNK         0.1171 
    101 H101       24.4798    0.2478    0.0929 H         1 UNK         0.0786 
    102 H102       25.3134   -1.0296    0.9611 H         1 UNK         0.0786 
    103 H103       23.7954   -1.3718    0.1289 H         1 UNK         0.0786 
    104 H104       25.4761   -3.1287   -0.4365 H         1 UNK         0.2977 
    105 H105       25.4158    1.5194   -4.2654 H         1 UNK         0.3127 
    106 H106       25.0883    4.2320   -4.9372 H         1 UNK         0.0770 
    107 H107       23.0527    1.9413   -5.0598 H         1 UNK         0.0814 
    108 H108       22.6619    3.6549   -5.0212 H         1 UNK         0.0814 
    109 H109       23.4358    2.9038   -3.6339 H         1 UNK         0.0814 
    110 H110       24.8765    1.3405   -7.0343 H         1 UNK         0.2983 
    111 H111       24.1556    2.7643   -9.4327 H         1 UNK         0.0947 
    112 H112       24.6725    0.5923  -10.5252 H         1 UNK         0.0806 
    113 H113       23.7103    0.3262   -9.0807 H         1 UNK         0.0806 
    114 H114       25.4453    0.0081   -9.0595 H         1 UNK         0.0806 
    115 H115       27.0922    2.6755   -7.7241 H         1 UNK         0.3000 
    116 H116       29.1776    3.2794   -8.0409 H         1 UNK         0.0850 
    117 H117       29.7288    5.0271   -9.6947 H         1 UNK         0.0810 
    118 H118       28.1865    5.3904   -8.9373 H         1 UNK         0.0810 
    119 H119       28.2363    4.7307  -10.5721 H         1 UNK         0.0810 
    120 H120       28.7751    0.7248   -8.6199 H         1 UNK         0.3040 
    121 H121       29.7655   -0.1871  -11.1371 H         1 UNK         0.0766 
    122 H122       28.4654   -1.6110   -9.5401 H         1 UNK         0.0812 
    123 H123       29.7884   -1.5325   -8.3769 H         1 UNK         0.0812 
    124 H124       30.0116   -2.3577   -9.9138 H         1 UNK         0.0812 
    125 H125       31.7994   -1.0086  -11.7122 H         1 UNK         0.3205 
    126 H126       34.1242    0.3725  -10.6339 H         1 UNK         0.0754 
    127 H127       35.2730   -0.7292  -12.5538 H         1 UNK         0.0769 
    128 H128       33.8198    0.1057  -13.0750 H         1 UNK         0.0769 
    129 H129       33.8204   -1.6508  -12.9180 H         1 UNK         0.0769 
    130 H130       33.7089   -0.6726   -8.4622 H         1 UNK         0.2981 
    131 H131       34.3662   -3.4197   -8.0628 H         1 UNK         0.0541 
    132 H132       36.6262   -0.9028   -8.7285 H         1 UNK         0.3459 
    133 H133       38.0132   -1.7287   -8.0624 H         1 UNK         0.3459 
    134 H134       34.2212   -2.9417   -5.6792 H         1 UNK         0.0612 
    135 H135       32.8672   -2.2607   -6.5325 H         1 UNK         0.0612 
    136 H136       34.9635   -1.8082   -3.7409 H         1 UNK         0.0624 
    137 H137       34.9125   -0.1003   -3.3972 H         1 UNK         0.0624 
@<TRIPOS>BOND
     1    1    2 1    
     2    1   72 1    
     3    1   73 1    
     4    1   74 1    
     5    2    3 2    
     6    2    4 am   BACKBONE|DICT|INTERRES
     7    4    5 1    
     8    4   75 1    
     9    5    6 1    
    10    5   35 1    
    11    5   76 1    
    12    6    7 1    
    13    6   77 1    
    14    6   78 1    
    15    7    8 1    
    16    8    9 1    
    17    8   79 1    
    18    8   80 1    
    19    9   10 ar   
    20    9   14 ar   
    21   10   11 ar   
    22   10   81 1    
    23   11   12 ar   
    24   11   71 1    
    25   12   13 ar   
    26   12   82 1    
    27   13   14 ar   
    28   13   15 1    
    29   14   83 1    
    30   15   16 1    
    31   15   84 1    
    32   15   85 1    
    33   16   17 1    
    34   17   18 1    
    35   17   86 1    
    36   17   87 1    
    37   18   19 1    
    38   18   37 1    
    39   18   88 1    
    40   19   20 am   BACKBONE|DICT|INTERRES
    41   19   89 1    
    42   20   21 2    
    43   20   22 1    
    44   22   23 1    
    45   22   24 1    
    46   22   90 1    
    47   23   91 1    
    48   23   92 1    
    49   23   93 1    
    50   24   25 am   BACKBONE|DICT|INTERRES
    51   24   94 1    
    52   25   26 2    
    53   25   27 1    
    54   27   28 1    
    55   27   29 1    
    56   27   95 1    
    57   28   96 1    
    58   28   97 1    
    59   28   98 1    
    60   29   30 am   BACKBONE|DICT|INTERRES
    61   29   99 1    
    62   30   31 2    
    63   30   32 1    
    64   32   33 1    
    65   32   34 1    
    66   32  100 1    
    67   33  101 1    
    68   33  102 1    
    69   33  103 1    
    70   34   35 am   BACKBONE|DICT|INTERRES
    71   34  104 1    
    72   35   36 2    
    73   37   38 2    
    74   37   39 am   BACKBONE|DICT|INTERRES
    75   39   40 1    
    76   39  105 1    
    77   40   41 1    
    78   40   42 1    
    79   40  106 1    
    80   41  107 1    
    81   41  108 1    
    82   41  109 1    
    83   42   43 2    
    84   42   44 am   BACKBONE|DICT|INTERRES
    85   44   45 1    
    86   44  110 1    
    87   45   46 1    
    88   45   47 1    
    89   45  111 1    
    90   46  112 1    
    91   46  113 1    
    92   46  114 1    
    93   47   48 2    
    94   47   49 am   BACKBONE|DICT|INTERRES
    95   49   50 1    
    96   49  115 1    
    97   50   51 1    
    98   50   52 1    
    99   50  116 1    
   100   51  117 1    
   101   51  118 1    
   102   51  119 1    
   103   52   53 2    
   104   52   54 am   BACKBONE|DICT|INTERRES
   105   54   55 1    
   106   54  120 1    
   107   55   56 1    
   108   55   57 1    
   109   55  121 1    
   110   56  122 1    
   111   56  123 1    
   112   56  124 1    
   113   57   58 2    
   114   57   59 am   BACKBONE|DICT|INTERRES
   115   59   60 1    
   116   59  125 1    
   117   60   61 1    
   118   60   62 1    
   119   60  126 1    
   120   61  127 1    
   121   61  128 1    
   122   61  129 1    
   123   62   63 2    
   124   62   64 am   BACKBONE|DICT|INTERRES
   125   64   65 1    
   126   64  130 1    
   127   65   66 1    
   128   65   69 1    
   129   65  131 1    
   130   66   67 am   BACKBONE|DICT|INTERRES
   131   66   68 2    
   132   67  132 1    
   133   67  133 1    
   134   69   70 1    
   135   69  134 1    
   136   69  135 1    
   137   70   71 1    
   138   71  136 1    
   139   71  137 1    
@<TRIPOS>SUBSTRUCTURE
     1 UNK         1 GROUP             0       ****    0 ROOT    
