@<TRIPOS>MOLECULE
3R137
137   139    1
SMALL
USER_CHARGES


@<TRIPOS>ATOM
      1 CA         29.6102   -0.5471   -2.9023 C.3       0 UNK        -0.2020 
      2 C          29.7688   -0.7864   -1.4031 C.2       0 UNK         0.4855 
      3 O          30.2978    0.0780   -0.7081 O.2       0 UNK        -0.5197 
      4 N          29.3324   -1.9274   -0.8492 N.am      1 UNK        -0.4892 
      5 CA         28.6438   -3.0436   -1.5177 C.3       1 UNK         0.0835 
      6 C6         28.6812   -4.3412   -0.6667 C.3       12 UNK        -0.0855 
      7 S7         30.3584   -4.8243   -0.1290 S.3       12 UNK        -0.2931 
      8 C8         30.8271   -6.0424   -1.3997 C.3       12 UNK         0.0378 
      9 C9         31.0234   -5.3858   -2.7575 C.ar      12 UNK        -0.0802 
     10 C10        32.1169   -4.5397   -2.9710 C.ar      12 UNK        -0.0944 
     11 C11        32.2914   -3.9074   -4.2041 C.ar      12 UNK        -0.0787 
     12 C12        31.3760   -4.1415   -5.2304 C.ar      12 UNK        -0.0862 
     13 C13        30.2757   -4.9771   -5.0303 C.ar      12 UNK        -0.0733 
     14 C14        30.1072   -5.6056   -3.7926 C.ar      12 UNK        -0.0832 
     15 C15        29.2677   -5.1849   -6.1520 C.3       12 UNK         0.0240 
     16 S16        27.7014   -4.3137   -5.8306 S.3       12 UNK        -0.2522 
     17 C17        28.2189   -2.5627   -5.7514 C.3       12 UNK        -0.0967 
     18 CA         27.4279   -1.6728   -6.7333 C.3       5 UNK         0.0660 
     19 N          25.9896   -1.6923   -6.4530 N.am      5 UNK        -0.4015 
     20 C          25.0475   -1.2872   -7.3134 C.2       4 UNK         0.4946 
     21 O          25.2890   -0.8363   -8.4335 O.2       4 UNK        -0.5353 
     22 CA         23.5927   -1.3667   -6.8232 C.3       4 UNK         0.0277 
     23 CB         23.1032   -2.8239   -6.7883 C.3       4 UNK        -0.1981 
     24 N          23.4016   -0.7462   -5.5090 N.am      4 UNK        -0.4209 
     25 C          23.5876    0.5575   -5.2587 C.2       3 UNK         0.4942 
     26 O          23.9426    1.3724   -6.1064 O.2       3 UNK        -0.5208 
     27 CA         23.3632    1.0462   -3.8205 C.3       3 UNK         0.0250 
     28 CB         21.8867    1.4167   -3.6072 C.3       3 UNK        -0.1990 
     29 N          23.7881    0.1141   -2.7734 N.am      3 UNK        -0.4232 
     30 C          25.0128   -0.4124   -2.6314 C.2       2 UNK         0.4993 
     31 O          25.9255   -0.2652   -3.4508 O.2       2 UNK        -0.5286 
     32 CA         25.2375   -1.1922   -1.3209 C.3       2 UNK         0.0209 
     33 CB         24.1840   -2.3043   -1.1093 C.3       2 UNK        -0.1931 
     34 N          26.6006   -1.7186   -1.1785 N.am      2 UNK        -0.4546 
     35 C          27.1783   -2.7104   -1.8726 C.2       1 UNK         0.5154 
     36 O          26.6066   -3.3672   -2.7412 O.2       1 UNK        -0.5181 
     37 C          27.9844   -0.2348   -6.7540 C.2       5 UNK         0.5014 
     38 O          28.9019    0.0462   -7.5303 O.2       5 UNK        -0.5248 
     39 N          27.4097    0.6537   -5.9278 N.am      6 UNK        -0.4434 
     40 CA         27.7016    2.0872   -5.9289 C.3       6 UNK         0.0363 
     41 CB         27.0703    2.7518   -4.6966 C.3       6 UNK        -0.1936 
     42 C          27.2433    2.7736   -7.2277 C.2       6 UNK         0.5081 
     43 O          28.0294    3.5086   -7.8229 O.2       6 UNK        -0.5248 
     44 N          26.0098    2.4929   -7.6759 N.am      7 UNK        -0.4718 
     45 CA         25.4431    2.9924   -8.9358 C.3       7 UNK         0.0273 
     46 CB         23.9462    2.6529   -9.0091 C.3       7 UNK        -0.1935 
     47 C          26.1743    2.4618  -10.1793 C.2       7 UNK         0.5018 
     48 O          26.3355    3.2051  -11.1476 O.2       7 UNK        -0.5186 
     49 N          26.6424    1.2070  -10.1152 N.am      8 UNK        -0.4240 
     50 CA         27.5202    0.5915  -11.1153 C.3       8 UNK         0.0235 
     51 CB         27.5559   -0.9283  -10.8845 C.3       8 UNK        -0.2000 
     52 C          28.9528    1.1631  -11.1193 C.2       8 UNK         0.4941 
     53 O          29.6984    0.8775  -12.0571 O.2       8 UNK        -0.5273 
     54 N          29.3155    1.9353  -10.0815 N.am      9 UNK        -0.4262 
     55 CA         30.6242    2.5451   -9.8269 C.3       9 UNK         0.0264 
     56 CB         30.9488    3.6188  -10.8874 C.3       9 UNK        -0.1955 
     57 C          31.7441    1.5024   -9.6549 C.2       9 UNK         0.5031 
     58 O          32.8711    1.7336  -10.0982 O.2       9 UNK        -0.5390 
     59 N          31.4168    0.3703   -9.0140 N.am      10 UNK        -0.4204 
     60 CA         32.3485   -0.7348   -8.7778 C.3       10 UNK         0.0237 
     61 CB         31.5565   -1.9953   -8.4056 C.3       10 UNK        -0.1985 
     62 C          33.4015   -0.3993   -7.7075 C.2       10 UNK         0.4970 
     63 O          34.5691   -0.7520   -7.8771 O.2       10 UNK        -0.4914 
     64 N          32.9726    0.2957   -6.6485 N.am      11 UNK        -0.4285 
     65 CA         33.8204    0.8155   -5.5641 C.3       11 UNK         0.1007 
     66 C          33.1970    2.0371   -4.8262 C.2       11 UNK         0.5703 
     67 N          32.1311    2.6508   -5.3316 N.am      11 UNK        -0.7361 
     68 O          33.7010    2.4604   -3.7887 O.2       11 UNK        -0.4986 
     69 C69        34.3501   -0.2929   -4.6073 C.3       12 UNK        -0.0947 
     70 S70        33.0276   -1.2869   -3.8393 S.3       12 UNK        -0.2240 
     71 C71        33.4504   -2.9526   -4.4298 C.3       12 UNK         0.0194 
     72 H72        29.9948   -1.3863   -3.4800 H         1 UNK         0.0906 
     73 H73        28.5660   -0.3794   -3.1605 H         1 UNK         0.0906 
     74 H74        30.1707    0.3370   -3.2065 H         1 UNK         0.0906 
     75 H75        29.5000   -2.0702    0.1371 H         1 UNK         0.3140 
     76 H76        29.1575   -3.2501   -2.4574 H         1 UNK         0.1085 
     77 H77        28.0753   -4.2215    0.2339 H         1 UNK         0.0836 
     78 H78        28.2334   -5.1715   -1.2170 H         1 UNK         0.0836 
     79 H79        30.0746   -6.8312   -1.4471 H         1 UNK         0.0731 
     80 H80        31.7576   -6.5259   -1.0988 H         1 UNK         0.0731 
     81 H81        32.8178   -4.3546   -2.1682 H         1 UNK         0.1312 
     82 H82        31.5137   -3.6576   -6.1839 H         1 UNK         0.1406 
     83 H83        29.2515   -6.2481   -3.6333 H         1 UNK         0.1631 
     84 H84        29.0632   -6.2509   -6.2611 H         1 UNK         0.0717 
     85 H85        29.6723   -4.8515   -7.1091 H         1 UNK         0.0717 
     86 H86        28.0761   -2.2173   -4.7282 H         1 UNK         0.0934 
     87 H87        29.2868   -2.4870   -5.9529 H         1 UNK         0.0934 
     88 H88        27.5734   -2.0799   -7.7360 H         1 UNK         0.0739 
     89 H89        25.7150   -2.0276   -5.5402 H         1 UNK         0.3093 
     90 H90        22.9766   -0.8197   -7.5404 H         1 UNK         0.0818 
     91 H91        23.2327   -3.3011   -7.7608 H         1 UNK         0.0819 
     92 H92        23.6495   -3.4216   -6.0574 H         1 UNK         0.0819 
     93 H93        22.0427   -2.8797   -6.5418 H         1 UNK         0.0819 
     94 H94        23.1154   -1.3457   -4.7489 H         1 UNK         0.3041 
     95 H95        23.9562    1.9537   -3.6941 H         1 UNK         0.0784 
     96 H96        21.5494    2.1274   -4.3635 H         1 UNK         0.0793 
     97 H97        21.2367    0.5429   -3.6687 H         1 UNK         0.0793 
     98 H98        21.7299    1.8853   -2.6354 H         1 UNK         0.0793 
     99 H99        23.1086   -0.0688   -2.0491 H         1 UNK         0.3024 
    100 H100       25.1209   -0.4666   -0.5140 H         1 UNK         0.1171 
    101 H101       24.4064   -2.8958   -0.2211 H         1 UNK         0.0786 
    102 H102       23.1856   -1.8894   -0.9690 H         1 UNK         0.0786 
    103 H103       24.1331   -2.9863   -1.9587 H         1 UNK         0.0786 
    104 H104       27.1840   -1.2352   -0.5094 H         1 UNK         0.2977 
    105 H105       26.7019    0.3317   -5.2743 H         1 UNK         0.3127 
    106 H106       28.7849    2.2044   -5.8547 H         1 UNK         0.0770 
    107 H107       25.9830    2.6864   -4.7151 H         1 UNK         0.0814 
    108 H108       27.3320    3.8096   -4.6487 H         1 UNK         0.0814 
    109 H109       27.4180    2.2879   -3.7732 H         1 UNK         0.0814 
    110 H110       25.3925    1.9173   -7.1051 H         1 UNK         0.2983 
    111 H111       25.5462    4.0796   -8.9366 H         1 UNK         0.0947 
    112 H112       23.5061    3.0162   -9.9387 H         1 UNK         0.0806 
    113 H113       23.3957    3.1138   -8.1888 H         1 UNK         0.0806 
    114 H114       23.7752    1.5765   -8.9634 H         1 UNK         0.0806 
    115 H115       26.3813    0.6327   -9.3188 H         1 UNK         0.3000 
    116 H116       27.0926    0.7787  -12.1025 H         1 UNK         0.0850 
    117 H117       28.1448   -1.4277  -11.6550 H         1 UNK         0.0810 
    118 H118       26.5550   -1.3595  -10.9116 H         1 UNK         0.0810 
    119 H119       28.0033   -1.1766   -9.9222 H         1 UNK         0.0810 
    120 H120       28.6235    2.1125   -9.3627 H         1 UNK         0.3040 
    121 H121       30.5384    3.0526   -8.8653 H         1 UNK         0.0766 
    122 H122       31.1125    3.1802  -11.8722 H         1 UNK         0.0812 
    123 H123       31.8526    4.1690  -10.6230 H         1 UNK         0.0812 
    124 H124       30.1414    4.3461  -10.9734 H         1 UNK         0.0812 
    125 H125       30.4704    0.2647   -8.6532 H         1 UNK         0.3205 
    126 H126       32.8791   -0.9359   -9.7112 H         1 UNK         0.0754 
    127 H127       32.2254   -2.8438   -8.2574 H         1 UNK         0.0769 
    128 H128       30.8546   -2.2693   -9.1936 H         1 UNK         0.0769 
    129 H129       30.9867   -1.8487   -7.4888 H         1 UNK         0.0769 
    130 H130       31.9887    0.5006   -6.5668 H         1 UNK         0.2981 
    131 H131       34.6983    1.2462   -6.0490 H         1 UNK         0.0541 
    132 H132       31.7433    2.3955   -6.2223 H         1 UNK         0.3459 
    133 H133       31.7584    3.4446   -4.8351 H         1 UNK         0.3459 
    134 H134       34.9608    0.1380   -3.8123 H         1 UNK         0.0612 
    135 H135       35.0253   -0.9515   -5.1544 H         1 UNK         0.0612 
    136 H136       34.3422   -3.3073   -3.9111 H         1 UNK         0.0624 
    137 H137       33.6998   -2.9124   -5.4915 H         1 UNK         0.0624 
@<TRIPOS>BOND
     1    1    2 1    
     2    1   72 1    
     3    1   73 1    
     4    1   74 1    
     5    2    3 2    
     6    2    4 am   BACKBONE|DICT|INTERRES
     7    4    5 1    
     8    4   75 1    
     9    5    6 1    
    10    5   35 1    
    11    5   76 1    
    12    6    7 1    
    13    6   77 1    
    14    6   78 1    
    15    7    8 1    
    16    8    9 1    
    17    8   79 1    
    18    8   80 1    
    19    9   10 ar   
    20    9   14 ar   
    21   10   11 ar   
    22   10   81 1    
    23   11   12 ar   
    24   11   71 1    
    25   12   13 ar   
    26   12   82 1    
    27   13   14 ar   
    28   13   15 1    
    29   14   83 1    
    30   15   16 1    
    31   15   84 1    
    32   15   85 1    
    33   16   17 1    
    34   17   18 1    
    35   17   86 1    
    36   17   87 1    
    37   18   19 1    
    38   18   37 1    
    39   18   88 1    
    40   19   20 am   BACKBONE|DICT|INTERRES
    41   19   89 1    
    42   20   21 2    
    43   20   22 1    
    44   22   23 1    
    45   22   24 1    
    46   22   90 1    
    47   23   91 1    
    48   23   92 1    
    49   23   93 1    
    50   24   25 am   BACKBONE|DICT|INTERRES
    51   24   94 1    
    52   25   26 2    
    53   25   27 1    
    54   27   28 1    
    55   27   29 1    
    56   27   95 1    
    57   28   96 1    
    58   28   97 1    
    59   28   98 1    
    60   29   30 am   BACKBONE|DICT|INTERRES
    61   29   99 1    
    62   30   31 2    
    63   30   32 1    
    64   32   33 1    
    65   32   34 1    
    66   32  100 1    
    67   33  101 1    
    68   33  102 1    
    69   33  103 1    
    70   34   35 am   BACKBONE|DICT|INTERRES
    71   34  104 1    
    72   35   36 2    
    73   37   38 2    
    74   37   39 am   BACKBONE|DICT|INTERRES
    75   39   40 1    
    76   39  105 1    
    77   40   41 1    
    78   40   42 1    
    79   40  106 1    
    80   41  107 1    
    81   41  108 1    
    82   41  109 1    
    83   42   43 2    
    84   42   44 am   BACKBONE|DICT|INTERRES
    85   44   45 1    
    86   44  110 1    
    87   45   46 1    
    88   45   47 1    
    89   45  111 1    
    90   46  112 1    
    91   46  113 1    
    92   46  114 1    
    93   47   48 2    
    94   47   49 am   BACKBONE|DICT|INTERRES
    95   49   50 1    
    96   49  115 1    
    97   50   51 1    
    98   50   52 1    
    99   50  116 1    
   100   51  117 1    
   101   51  118 1    
   102   51  119 1    
   103   52   53 2    
   104   52   54 am   BACKBONE|DICT|INTERRES
   105   54   55 1    
   106   54  120 1    
   107   55   56 1    
   108   55   57 1    
   109   55  121 1    
   110   56  122 1    
   111   56  123 1    
   112   56  124 1    
   113   57   58 2    
   114   57   59 am   BACKBONE|DICT|INTERRES
   115   59   60 1    
   116   59  125 1    
   117   60   61 1    
   118   60   62 1    
   119   60  126 1    
   120   61  127 1    
   121   61  128 1    
   122   61  129 1    
   123   62   63 2    
   124   62   64 am   BACKBONE|DICT|INTERRES
   125   64   65 1    
   126   64  130 1    
   127   65   66 1    
   128   65   69 1    
   129   65  131 1    
   130   66   67 am   BACKBONE|DICT|INTERRES
   131   66   68 2    
   132   67  132 1    
   133   67  133 1    
   134   69   70 1    
   135   69  134 1    
   136   69  135 1    
   137   70   71 1    
   138   71  136 1    
   139   71  137 1    
@<TRIPOS>SUBSTRUCTURE
     1 UNK         1 GROUP             0       ****    0 ROOT    
