@<TRIPOS>MOLECULE
3R137
137   139    1
SMALL
USER_CHARGES


@<TRIPOS>ATOM
      1 CA         22.6232   -3.0719   -6.2555 C.3       0 UNK        -0.2020 
      2 C          23.9090   -2.8994   -5.4638 C.2       0 UNK         0.4855 
      3 O          24.1994   -1.7938   -5.0079 O.2       0 UNK        -0.5197 
      4 N          24.6706   -3.9891   -5.2967 N.am      1 UNK        -0.4892 
      5 CA         25.9485   -4.0820   -4.5764 C.3       1 UNK         0.0835 
      6 C6         27.1161   -3.3436   -5.2964 C.3       12 UNK        -0.0855 
      7 S7         28.6540   -4.3228   -5.3073 S.3       12 UNK        -0.2931 
      8 C8         29.3210   -4.0742   -3.6273 C.3       12 UNK         0.0378 
      9 C9         29.9454   -2.7008   -3.4181 C.ar      12 UNK        -0.0802 
     10 C10        31.0904   -2.3397   -4.1356 C.ar      12 UNK        -0.0944 
     11 C11        31.7253   -1.1195   -3.8908 C.ar      12 UNK        -0.0787 
     12 C12        31.1997   -0.2507   -2.9315 C.ar      12 UNK        -0.0862 
     13 C13        30.0585   -0.5972   -2.2023 C.ar      12 UNK        -0.0733 
     14 C14        29.4339   -1.8255   -2.4517 C.ar      12 UNK        -0.0832 
     15 C15        29.5602    0.3384   -1.1033 C.3       12 UNK         0.0240 
     16 S16        27.7940    0.7698   -1.2277 S.3       12 UNK        -0.2522 
     17 C17        27.6704    1.4478   -2.9182 C.3       12 UNK        -0.0967 
     18 CA         26.8203    0.5106   -3.8163 C.3       5 UNK         0.0660 
     19 N          25.4408    0.3191   -3.3422 N.am      5 UNK        -0.4015 
     20 C          24.4882    1.2640   -3.3096 C.2       4 UNK         0.4946 
     21 O          24.7036    2.4503   -3.5651 O.2       4 UNK        -0.5353 
     22 CA         23.0447    0.8559   -2.9737 C.3       4 UNK         0.0277 
     23 CB         22.1021    1.1841   -4.1492 C.3       4 UNK        -0.1981 
     24 N          22.8690   -0.5554   -2.6130 N.am      4 UNK        -0.4209 
     25 C          21.9704   -0.9680   -1.7051 C.2       3 UNK         0.4942 
     26 O          21.3220   -0.2052   -0.9868 O.2       3 UNK        -0.5208 
     27 CA         21.7037   -2.4777   -1.5951 C.3       3 UNK         0.0250 
     28 CB         20.7417   -2.9376   -2.7029 C.3       3 UNK        -0.1990 
     29 N          22.9160   -3.2914   -1.6320 N.am      3 UNK        -0.4232 
     30 C          23.8032   -3.3871   -0.6316 C.2       2 UNK         0.4993 
     31 O          23.7000   -2.7861    0.4382 O.2       2 UNK        -0.5286 
     32 CA         25.0008   -4.3310   -0.8520 C.3       2 UNK         0.0209 
     33 CB         24.7715   -5.6703   -0.1322 C.3       2 UNK        -0.1931 
     34 N          25.2883   -4.5881   -2.2684 N.am      2 UNK        -0.4546 
     35 C          25.7821   -3.6626   -3.1003 C.2       1 UNK         0.5154 
     36 O          26.0399   -2.5123   -2.7433 O.2       1 UNK        -0.5181 
     37 C          26.8481    0.8788   -5.3169 C.2       5 UNK         0.5014 
     38 O          27.6420    1.7209   -5.7416 O.2       5 UNK        -0.5248 
     39 N          25.9684    0.2303   -6.0980 N.am      6 UNK        -0.4434 
     40 CA         25.7132    0.5054   -7.5168 C.3       6 UNK         0.0363 
     41 CB         24.4109   -0.1967   -7.9349 C.3       6 UNK        -0.1936 
     42 C          26.8589    0.1295   -8.4759 C.2       6 UNK         0.5081 
     43 O          26.7529    0.4215   -9.6675 O.2       6 UNK        -0.5248 
     44 N          27.9237   -0.5032   -7.9618 N.am      7 UNK        -0.4718 
     45 CA         29.1535   -0.8246   -8.6911 C.3       7 UNK         0.0273 
     46 CB         30.0882   -1.6287   -7.7734 C.3       7 UNK        -0.1935 
     47 C          29.8645    0.4188   -9.2569 C.2       7 UNK         0.5018 
     48 O          30.3578    0.3621  -10.3846 O.2       7 UNK        -0.5186 
     49 N          29.8592    1.5195   -8.4862 N.am      8 UNK        -0.4240 
     50 CA         30.3358    2.8612   -8.8449 C.3       8 UNK         0.0235 
     51 CB         29.2920    3.5580   -9.7463 C.3       8 UNK        -0.2000 
     52 C          31.7589    2.8506   -9.4375 C.2       8 UNK         0.4941 
     53 O          32.7185    2.6472   -8.6954 O.2       8 UNK        -0.5273 
     54 N          31.8753    3.0308  -10.7609 N.am      9 UNK        -0.4262 
     55 CA         33.1321    2.9870  -11.5140 C.3       9 UNK         0.0264 
     56 CB         32.8592    3.3678  -12.9778 C.3       9 UNK        -0.1955 
     57 C          33.8679    1.6355  -11.4387 C.2       9 UNK         0.5031 
     58 O          35.0958    1.6204  -11.5431 O.2       9 UNK        -0.5390 
     59 N          33.1329    0.5323  -11.2246 N.am      10 UNK        -0.4204 
     60 CA         33.6986   -0.8097  -11.0509 C.3       10 UNK         0.0237 
     61 CB         32.5981   -1.8694  -11.2231 C.3       10 UNK        -0.1985 
     62 C          34.4460   -0.9984   -9.7166 C.2       10 UNK         0.4970 
     63 O          35.1869   -1.9744   -9.5912 O.2       10 UNK        -0.4914 
     64 N          34.2738   -0.0732   -8.7603 N.am      11 UNK        -0.4285 
     65 CA         35.0682   -0.0097   -7.5239 C.3       11 UNK         0.1007 
     66 C          36.5431    0.4437   -7.7427 C.2       11 UNK         0.5703 
     67 N          36.9174    0.9836   -8.8987 N.am      11 UNK        -0.7361 
     68 O          37.3678    0.2939   -6.8442 O.2       11 UNK        -0.4986 
     69 C69        34.3904    0.8620   -6.4348 C.3       12 UNK        -0.0947 
     70 S70        32.6911    0.3374   -6.0304 S.3       12 UNK        -0.2240 
     71 C71        33.0101   -0.7553   -4.6166 C.3       12 UNK         0.0194 
     72 H72        21.9325   -2.2558   -6.0442 H         1 UNK         0.0906 
     73 H73        22.1269   -4.0087   -6.0034 H         1 UNK         0.0906 
     74 H74        22.8338   -3.0680   -7.3243 H         1 UNK         0.0906 
     75 H75        24.3518   -4.8597   -5.7008 H         1 UNK         0.3140 
     76 H76        26.1816   -5.1485   -4.5718 H         1 UNK         0.1085 
     77 H77        27.3162   -2.3523   -4.8967 H         1 UNK         0.0836 
     78 H78        26.8590   -3.1760   -6.3436 H         1 UNK         0.0836 
     79 H79        28.5479   -4.2719   -2.8853 H         1 UNK         0.0731 
     80 H80        30.0911   -4.8274   -3.4549 H         1 UNK         0.0731 
     81 H81        31.4997   -3.0217   -4.8686 H         1 UNK         0.1312 
     82 H82        31.7008    0.6878   -2.7365 H         1 UNK         0.1406 
     83 H83        28.5603   -2.1037   -1.8772 H         1 UNK         0.1631 
     84 H84        30.1360    1.2653   -1.0941 H         1 UNK         0.0717 
     85 H85        29.7340   -0.1364   -0.1370 H         1 UNK         0.0717 
     86 H86        27.2385    2.4481   -2.8708 H         1 UNK         0.0934 
     87 H87        28.6735    1.5746   -3.3291 H         1 UNK         0.0934 
     88 H88        27.2912   -0.4679   -3.7637 H         1 UNK         0.0739 
     89 H89        25.2143   -0.6418   -3.1108 H         1 UNK         0.3093 
     90 H90        22.7650    1.4864   -2.1270 H         1 UNK         0.0818 
     91 H91        21.0596    1.0067   -3.8850 H         1 UNK         0.0819 
     92 H92        22.3339    0.5779   -5.0258 H         1 UNK         0.0819 
     93 H93        22.1833    2.2311   -4.4444 H         1 UNK         0.0819 
     94 H94        23.3410   -1.2334   -3.2014 H         1 UNK         0.3041 
     95 H95        21.2131   -2.6542   -0.6350 H         1 UNK         0.0784 
     96 H96        19.8119   -2.3676   -2.6715 H         1 UNK         0.0793 
     97 H97        21.1704   -2.8028   -3.6955 H         1 UNK         0.0793 
     98 H98        20.4780   -3.9894   -2.5896 H         1 UNK         0.0793 
     99 H99        23.0826   -3.8330   -2.4664 H         1 UNK         0.3024 
    100 H100       25.8743   -3.8470   -0.4080 H         1 UNK         0.1171 
    101 H101       24.5827   -5.5146    0.9311 H         1 UNK         0.0786 
    102 H102       23.9139   -6.2073   -0.5396 H         1 UNK         0.0786 
    103 H103       25.6443   -6.3187   -0.2117 H         1 UNK         0.0786 
    104 H104       25.0771   -5.5121   -2.6189 H         1 UNK         0.2977 
    105 H105       25.3567   -0.4576   -5.6612 H         1 UNK         0.3127 
    106 H106       25.5622    1.5824   -7.6151 H         1 UNK         0.0770 
    107 H107       24.5249   -1.2805   -7.9308 H         1 UNK         0.0814 
    108 H108       24.1167    0.0934   -8.9444 H         1 UNK         0.0814 
    109 H109       23.5847    0.0607   -7.2719 H         1 UNK         0.0814 
    110 H110       27.9169   -0.7002   -6.9728 H         1 UNK         0.2983 
    111 H111       28.8830   -1.4533   -9.5421 H         1 UNK         0.0947 
    112 H112       30.2379   -1.1314   -6.8149 H         1 UNK         0.0806 
    113 H113       31.0719   -1.7685   -8.2220 H         1 UNK         0.0806 
    114 H114       29.6828   -2.6198   -7.5725 H         1 UNK         0.0806 
    115 H115       29.4347    1.4415   -7.5711 H         1 UNK         0.3000 
    116 H116       30.4001    3.4269   -7.9140 H         1 UNK         0.0850 
    117 H117       29.6149    4.5619  -10.0261 H         1 UNK         0.0810 
    118 H118       28.3409    3.6644   -9.2241 H         1 UNK         0.0810 
    119 H119       29.0961    2.9989  -10.6621 H         1 UNK         0.0810 
    120 H120       31.0288    3.1566  -11.2969 H         1 UNK         0.3040 
    121 H121       33.7962    3.7391  -11.0831 H         1 UNK         0.0766 
    122 H122       33.7828    3.3706  -13.5588 H         1 UNK         0.0812 
    123 H123       32.4277    4.3659  -13.0558 H         1 UNK         0.0812 
    124 H124       32.1753    2.6660  -13.4570 H         1 UNK         0.0812 
    125 H125       32.1268    0.6212  -11.0940 H         1 UNK         0.3205 
    126 H126       34.4307   -0.9639  -11.8466 H         1 UNK         0.0754 
    127 H127       31.8546   -1.8158  -10.4297 H         1 UNK         0.0769 
    128 H128       33.0197   -2.8753  -11.2025 H         1 UNK         0.0769 
    129 H129       32.0808   -1.7550  -12.1758 H         1 UNK         0.0769 
    130 H130       33.6529    0.7112   -8.9205 H         1 UNK         0.2981 
    131 H131       35.1266   -1.0251   -7.1277 H         1 UNK         0.0541 
    132 H132       36.2551    1.1165   -9.6511 H         1 UNK         0.3459 
    133 H133       37.8770    1.2658   -9.0201 H         1 UNK         0.3459 
    134 H134       34.3491    1.9029   -6.7585 H         1 UNK         0.0612 
    135 H135       34.9846    0.8635   -5.5194 H         1 UNK         0.0612 
    136 H136       33.5219   -1.6530   -4.9668 H         1 UNK         0.0624 
    137 H137       33.6895   -0.2643   -3.9184 H         1 UNK         0.0624 
@<TRIPOS>BOND
     1    1    2 1    
     2    1   72 1    
     3    1   73 1    
     4    1   74 1    
     5    2    3 2    
     6    2    4 am   BACKBONE|DICT|INTERRES
     7    4    5 1    
     8    4   75 1    
     9    5    6 1    
    10    5   35 1    
    11    5   76 1    
    12    6    7 1    
    13    6   77 1    
    14    6   78 1    
    15    7    8 1    
    16    8    9 1    
    17    8   79 1    
    18    8   80 1    
    19    9   10 ar   
    20    9   14 ar   
    21   10   11 ar   
    22   10   81 1    
    23   11   12 ar   
    24   11   71 1    
    25   12   13 ar   
    26   12   82 1    
    27   13   14 ar   
    28   13   15 1    
    29   14   83 1    
    30   15   16 1    
    31   15   84 1    
    32   15   85 1    
    33   16   17 1    
    34   17   18 1    
    35   17   86 1    
    36   17   87 1    
    37   18   19 1    
    38   18   37 1    
    39   18   88 1    
    40   19   20 am   BACKBONE|DICT|INTERRES
    41   19   89 1    
    42   20   21 2    
    43   20   22 1    
    44   22   23 1    
    45   22   24 1    
    46   22   90 1    
    47   23   91 1    
    48   23   92 1    
    49   23   93 1    
    50   24   25 am   BACKBONE|DICT|INTERRES
    51   24   94 1    
    52   25   26 2    
    53   25   27 1    
    54   27   28 1    
    55   27   29 1    
    56   27   95 1    
    57   28   96 1    
    58   28   97 1    
    59   28   98 1    
    60   29   30 am   BACKBONE|DICT|INTERRES
    61   29   99 1    
    62   30   31 2    
    63   30   32 1    
    64   32   33 1    
    65   32   34 1    
    66   32  100 1    
    67   33  101 1    
    68   33  102 1    
    69   33  103 1    
    70   34   35 am   BACKBONE|DICT|INTERRES
    71   34  104 1    
    72   35   36 2    
    73   37   38 2    
    74   37   39 am   BACKBONE|DICT|INTERRES
    75   39   40 1    
    76   39  105 1    
    77   40   41 1    
    78   40   42 1    
    79   40  106 1    
    80   41  107 1    
    81   41  108 1    
    82   41  109 1    
    83   42   43 2    
    84   42   44 am   BACKBONE|DICT|INTERRES
    85   44   45 1    
    86   44  110 1    
    87   45   46 1    
    88   45   47 1    
    89   45  111 1    
    90   46  112 1    
    91   46  113 1    
    92   46  114 1    
    93   47   48 2    
    94   47   49 am   BACKBONE|DICT|INTERRES
    95   49   50 1    
    96   49  115 1    
    97   50   51 1    
    98   50   52 1    
    99   50  116 1    
   100   51  117 1    
   101   51  118 1    
   102   51  119 1    
   103   52   53 2    
   104   52   54 am   BACKBONE|DICT|INTERRES
   105   54   55 1    
   106   54  120 1    
   107   55   56 1    
   108   55   57 1    
   109   55  121 1    
   110   56  122 1    
   111   56  123 1    
   112   56  124 1    
   113   57   58 2    
   114   57   59 am   BACKBONE|DICT|INTERRES
   115   59   60 1    
   116   59  125 1    
   117   60   61 1    
   118   60   62 1    
   119   60  126 1    
   120   61  127 1    
   121   61  128 1    
   122   61  129 1    
   123   62   63 2    
   124   62   64 am   BACKBONE|DICT|INTERRES
   125   64   65 1    
   126   64  130 1    
   127   65   66 1    
   128   65   69 1    
   129   65  131 1    
   130   66   67 am   BACKBONE|DICT|INTERRES
   131   66   68 2    
   132   67  132 1    
   133   67  133 1    
   134   69   70 1    
   135   69  134 1    
   136   69  135 1    
   137   70   71 1    
   138   71  136 1    
   139   71  137 1    
@<TRIPOS>SUBSTRUCTURE
     1 UNK         1 GROUP             0       ****    0 ROOT    
