@<TRIPOS>MOLECULE
3R137
137   139    1
SMALL
USER_CHARGES


@<TRIPOS>ATOM
      1 CA         28.0804   -5.6175    0.6672 C.3       0 UNK        -0.2020 
      2 C          27.3284   -4.3772    1.1261 C.2       0 UNK         0.4855 
      3 O          26.4465   -4.4744    1.9793 O.2       0 UNK        -0.5197 
      4 N          27.6688   -3.2105    0.5634 N.am      1 UNK        -0.4892 
      5 CA         27.0379   -1.9164    0.8575 C.3       1 UNK         0.0835 
      6 C6         27.9708   -0.7327    0.4865 C.3       12 UNK        -0.0855 
      7 S7         28.3626   -0.6316   -1.2952 S.3       12 UNK        -0.2931 
      8 C8         30.0420   -1.3211   -1.3658 C.3       12 UNK         0.0378 
      9 C9         30.3189   -1.8743   -2.7537 C.ar      12 UNK        -0.0802 
     10 C10        31.0862   -1.1519   -3.6723 C.ar      12 UNK        -0.0944 
     11 C11        31.3264   -1.6622   -4.9529 C.ar      12 UNK        -0.0787 
     12 C12        30.7803   -2.8999   -5.3118 C.ar      12 UNK        -0.0862 
     13 C13        30.0180   -3.6334   -4.3981 C.ar      12 UNK        -0.0733 
     14 C14        29.7934   -3.1158   -3.1208 C.ar      12 UNK        -0.0832 
     15 C15        29.4533   -4.9953   -4.7760 C.3       12 UNK         0.0240 
     16 S16        28.2151   -4.9026   -6.1058 S.3       12 UNK        -0.2522 
     17 C17        26.9050   -3.8652   -5.3704 C.3       12 UNK        -0.0967 
     18 CA         26.4410   -2.7674   -6.3604 C.3       5 UNK         0.0660 
     19 N          25.0306   -2.4225   -6.1759 N.am      5 UNK        -0.4015 
     20 C          24.1852   -2.1281   -7.1746 C.2       4 UNK         0.4946 
     21 O          24.4828   -2.1940   -8.3676 O.2       4 UNK        -0.5353 
     22 CA         22.7606   -1.6824   -6.7943 C.3       4 UNK         0.0277 
     23 CB         21.7903   -2.8728   -6.8645 C.3       4 UNK        -0.1981 
     24 N          22.6687   -1.0638   -5.4703 N.am      4 UNK        -0.4209 
     25 C          23.2273    0.1072   -5.1337 C.2       3 UNK         0.4942 
     26 O          23.8525    0.8193   -5.9185 O.2       3 UNK        -0.5208 
     27 CA         23.1147    0.5240   -3.6565 C.3       3 UNK         0.0250 
     28 CB         21.8235    1.3237   -3.4219 C.3       3 UNK        -0.1990 
     29 N          23.1793   -0.5956   -2.7074 N.am      3 UNK        -0.4232 
     30 C          24.1853   -1.4773   -2.6197 C.2       2 UNK         0.4993 
     31 O          25.1517   -1.4990   -3.3872 O.2       2 UNK        -0.5286 
     32 CA         24.0703   -2.5561   -1.5359 C.3       2 UNK         0.0209 
     33 CB         23.8077   -3.9302   -2.1746 C.3       2 UNK        -0.1931 
     34 N          25.3068   -2.6156   -0.7605 N.am      2 UNK        -0.4546 
     35 C          25.6326   -1.7676    0.2258 C.2       1 UNK         0.5154 
     36 O          24.8719   -0.8929    0.6451 O.2       1 UNK        -0.5181 
     37 C          27.3096   -1.4963   -6.3003 C.2       5 UNK         0.5014 
     38 O          28.1977   -1.3354   -7.1381 O.2       5 UNK        -0.5248 
     39 N          26.9902   -0.5757   -5.3733 N.am      6 UNK        -0.4434 
     40 CA         27.6147    0.7489   -5.2373 C.3       6 UNK         0.0363 
     41 CB         26.9511    1.5158   -4.0835 C.3       6 UNK        -0.1936 
     42 C          27.5498    1.5968   -6.5218 C.2       6 UNK         0.5081 
     43 O          28.4730    2.3658   -6.7918 O.2       6 UNK        -0.5248 
     44 N          26.4898    1.3955   -7.3192 N.am      7 UNK        -0.4718 
     45 CA         26.2774    1.9585   -8.6563 C.3       7 UNK         0.0273 
     46 CB         24.9170    1.4772   -9.1864 C.3       7 UNK        -0.1935 
     47 C          27.3904    1.6581   -9.6826 C.2       7 UNK         0.5018 
     48 O          27.4511    2.3475  -10.7014 O.2       7 UNK        -0.5186 
     49 N          28.2691    0.6806   -9.4025 N.am      8 UNK        -0.4240 
     50 CA         29.5017    0.4325  -10.1576 C.3       8 UNK         0.0235 
     51 CB         30.0866   -0.9320   -9.7606 C.3       8 UNK        -0.2000 
     52 C          30.5585    1.5480  -10.0105 C.2       8 UNK         0.4941 
     53 O          31.4985    1.5649  -10.8063 O.2       8 UNK        -0.5273 
     54 N          30.3901    2.4545   -9.0308 N.am      9 UNK        -0.4262 
     55 CA         31.1180    3.7122   -8.8156 C.3       9 UNK         0.0264 
     56 CB         30.7478    4.7408   -9.9063 C.3       9 UNK        -0.1955 
     57 C          32.6365    3.5269   -8.6581 C.2       9 UNK         0.5031 
     58 O          33.1141    3.3840   -7.5319 O.2       9 UNK        -0.5390 
     59 N          33.3603    3.5130   -9.7869 N.am      10 UNK        -0.4204 
     60 CA         34.7884    3.1980   -9.8820 C.3       10 UNK         0.0237 
     61 CB         35.2735    3.4787  -11.3135 C.3       10 UNK        -0.1985 
     62 C          35.1218    1.7509   -9.4714 C.2       10 UNK         0.4970 
     63 O          36.2594    1.4934   -9.0764 O.2       10 UNK        -0.4914 
     64 N          34.1283    0.8515   -9.5418 N.am      11 UNK        -0.4285 
     65 CA         34.1797   -0.5269   -9.0289 C.3       11 UNK         0.1007 
     66 C          35.0514   -1.5064   -9.8737 C.2       11 UNK         0.5703 
     67 N          35.4236   -1.1626  -11.1014 N.am      11 UNK        -0.7361 
     68 O          35.3740   -2.6055   -9.4296 O.2       11 UNK        -0.4986 
     69 C69        34.4912   -0.5606   -7.5004 C.3       12 UNK        -0.0947 
     70 S70        33.5646   -1.8397   -6.5932 S.3       12 UNK        -0.2240 
     71 C71        32.1638   -0.8679   -5.9471 C.3       12 UNK         0.0194 
     72 H72        27.3884   -6.3327    0.2232 H         1 UNK         0.0906 
     73 H73        28.5661   -6.0967    1.5168 H         1 UNK         0.0906 
     74 H74        28.8465   -5.3830   -0.0716 H         1 UNK         0.0906 
     75 H75        28.3997   -3.1831   -0.1309 H         1 UNK         0.3140 
     76 H76        26.8802   -1.8699    1.9377 H         1 UNK         0.1085 
     77 H77        28.8971   -0.7959    1.0598 H         1 UNK         0.0836 
     78 H78        27.5131    0.2125    0.7851 H         1 UNK         0.0836 
     79 H79        30.7626   -0.5452   -1.1022 H         1 UNK         0.0731 
     80 H80        30.1601   -2.1157   -0.6281 H         1 UNK         0.0731 
     81 H81        31.4924   -0.1903   -3.3898 H         1 UNK         0.1312 
     82 H82        30.9515   -3.2951   -6.3039 H         1 UNK         0.1406 
     83 H83        29.2000   -3.6759   -2.4122 H         1 UNK         0.1631 
     84 H84        29.0051   -5.4884   -3.9118 H         1 UNK         0.0717 
     85 H85        30.2711   -5.6386   -5.1035 H         1 UNK         0.0717 
     86 H86        26.0763   -4.5357   -5.1371 H         1 UNK         0.0934 
     87 H87        27.2161   -3.4411   -4.4139 H         1 UNK         0.0934 
     88 H88        26.5510   -3.1690   -7.3705 H         1 UNK         0.0739 
     89 H89        24.7313   -2.2812   -5.2180 H         1 UNK         0.3093 
     90 H90        22.4464   -0.9398   -7.5312 H         1 UNK         0.0818 
     91 H91        21.8154   -3.3385   -7.8509 H         1 UNK         0.0819 
     92 H92        22.0410   -3.6436   -6.1345 H         1 UNK         0.0819 
     93 H93        20.7620   -2.5590   -6.6839 H         1 UNK         0.0819 
     94 H94        22.1683   -1.5765   -4.7588 H         1 UNK         0.3041 
     95 H95        23.9591    1.1780   -3.4360 H         1 UNK         0.0784 
     96 H96        21.7629    2.1747   -4.1021 H         1 UNK         0.0793 
     97 H97        20.9336    0.7139   -3.5830 H         1 UNK         0.0793 
     98 H98        21.7805    1.7206   -2.4074 H         1 UNK         0.0793 
     99 H99        22.4204   -0.6598   -2.0436 H         1 UNK         0.3024 
    100 H100       23.2408   -2.3178   -0.8658 H         1 UNK         0.1171 
    101 H101       24.6109   -4.2240   -2.8518 H         1 UNK         0.0786 
    102 H102       23.7105   -4.7067   -1.4155 H         1 UNK         0.0786 
    103 H103       22.8812   -3.9239   -2.7503 H         1 UNK         0.0786 
    104 H104       26.0088   -3.2702   -1.0702 H         1 UNK         0.2977 
    105 H105       26.2793   -0.8113   -4.6835 H         1 UNK         0.3127 
    106 H106       28.6654    0.5828   -4.9906 H         1 UNK         0.0770 
    107 H107       25.9569    1.8677   -4.3572 H         1 UNK         0.0814 
    108 H108       27.5407    2.3929   -3.8147 H         1 UNK         0.0814 
    109 H109       26.8516    0.9021   -3.1899 H         1 UNK         0.0814 
    110 H110       25.7463    0.8064   -6.9614 H         1 UNK         0.2983 
    111 H111       26.2381    3.0438   -8.5440 H         1 UNK         0.0947 
    112 H112       24.7027    1.9062  -10.1663 H         1 UNK         0.0806 
    113 H113       24.1041    1.7710   -8.5221 H         1 UNK         0.0806 
    114 H114       24.8889    0.3922   -9.2919 H         1 UNK         0.0806 
    115 H115       28.1420    0.1334   -8.5556 H         1 UNK         0.3000 
    116 H116       29.2372    0.3874  -11.2161 H         1 UNK         0.0850 
    117 H117       30.9664   -1.1708  -10.3592 H         1 UNK         0.0810 
    118 H118       29.3636   -1.7331   -9.9154 H         1 UNK         0.0810 
    119 H119       30.3852   -0.9540   -8.7135 H         1 UNK         0.0810 
    120 H120       29.6284    2.3012   -8.3741 H         1 UNK         0.3040 
    121 H121       30.7580    4.1074   -7.8641 H         1 UNK         0.0766 
    122 H122       30.9612    4.3792  -10.9125 H         1 UNK         0.0812 
    123 H123       31.2937    5.6752   -9.7677 H         1 UNK         0.0812 
    124 H124       29.6852    4.9815   -9.8668 H         1 UNK         0.0812 
    125 H125       32.8533    3.5733  -10.6592 H         1 UNK         0.3205 
    126 H126       35.3223    3.8620   -9.1991 H         1 UNK         0.0754 
    127 H127       36.3412    3.2763  -11.4109 H         1 UNK         0.0769 
    128 H128       35.1176    4.5223  -11.5879 H         1 UNK         0.0769 
    129 H129       34.7552    2.8572  -12.0451 H         1 UNK         0.0769 
    130 H130       33.2409    1.1430   -9.9406 H         1 UNK         0.2981 
    131 H131       33.1603   -0.8878   -9.1650 H         1 UNK         0.0541 
    132 H132       35.9787   -1.8028  -11.6468 H         1 UNK         0.3459 
    133 H133       35.1590   -0.2690  -11.4833 H         1 UNK         0.3459 
    134 H134       34.2584    0.4006   -7.0394 H         1 UNK         0.0612 
    135 H135       35.5578   -0.7086   -7.3224 H         1 UNK         0.0612 
    136 H136       32.5489    0.0378   -5.4761 H         1 UNK         0.0624 
    137 H137       31.5318   -0.5422   -6.7726 H         1 UNK         0.0624 
@<TRIPOS>BOND
     1    1    2 1    
     2    1   72 1    
     3    1   73 1    
     4    1   74 1    
     5    2    3 2    
     6    2    4 am   BACKBONE|DICT|INTERRES
     7    4    5 1    
     8    4   75 1    
     9    5    6 1    
    10    5   35 1    
    11    5   76 1    
    12    6    7 1    
    13    6   77 1    
    14    6   78 1    
    15    7    8 1    
    16    8    9 1    
    17    8   79 1    
    18    8   80 1    
    19    9   10 ar   
    20    9   14 ar   
    21   10   11 ar   
    22   10   81 1    
    23   11   12 ar   
    24   11   71 1    
    25   12   13 ar   
    26   12   82 1    
    27   13   14 ar   
    28   13   15 1    
    29   14   83 1    
    30   15   16 1    
    31   15   84 1    
    32   15   85 1    
    33   16   17 1    
    34   17   18 1    
    35   17   86 1    
    36   17   87 1    
    37   18   19 1    
    38   18   37 1    
    39   18   88 1    
    40   19   20 am   BACKBONE|DICT|INTERRES
    41   19   89 1    
    42   20   21 2    
    43   20   22 1    
    44   22   23 1    
    45   22   24 1    
    46   22   90 1    
    47   23   91 1    
    48   23   92 1    
    49   23   93 1    
    50   24   25 am   BACKBONE|DICT|INTERRES
    51   24   94 1    
    52   25   26 2    
    53   25   27 1    
    54   27   28 1    
    55   27   29 1    
    56   27   95 1    
    57   28   96 1    
    58   28   97 1    
    59   28   98 1    
    60   29   30 am   BACKBONE|DICT|INTERRES
    61   29   99 1    
    62   30   31 2    
    63   30   32 1    
    64   32   33 1    
    65   32   34 1    
    66   32  100 1    
    67   33  101 1    
    68   33  102 1    
    69   33  103 1    
    70   34   35 am   BACKBONE|DICT|INTERRES
    71   34  104 1    
    72   35   36 2    
    73   37   38 2    
    74   37   39 am   BACKBONE|DICT|INTERRES
    75   39   40 1    
    76   39  105 1    
    77   40   41 1    
    78   40   42 1    
    79   40  106 1    
    80   41  107 1    
    81   41  108 1    
    82   41  109 1    
    83   42   43 2    
    84   42   44 am   BACKBONE|DICT|INTERRES
    85   44   45 1    
    86   44  110 1    
    87   45   46 1    
    88   45   47 1    
    89   45  111 1    
    90   46  112 1    
    91   46  113 1    
    92   46  114 1    
    93   47   48 2    
    94   47   49 am   BACKBONE|DICT|INTERRES
    95   49   50 1    
    96   49  115 1    
    97   50   51 1    
    98   50   52 1    
    99   50  116 1    
   100   51  117 1    
   101   51  118 1    
   102   51  119 1    
   103   52   53 2    
   104   52   54 am   BACKBONE|DICT|INTERRES
   105   54   55 1    
   106   54  120 1    
   107   55   56 1    
   108   55   57 1    
   109   55  121 1    
   110   56  122 1    
   111   56  123 1    
   112   56  124 1    
   113   57   58 2    
   114   57   59 am   BACKBONE|DICT|INTERRES
   115   59   60 1    
   116   59  125 1    
   117   60   61 1    
   118   60   62 1    
   119   60  126 1    
   120   61  127 1    
   121   61  128 1    
   122   61  129 1    
   123   62   63 2    
   124   62   64 am   BACKBONE|DICT|INTERRES
   125   64   65 1    
   126   64  130 1    
   127   65   66 1    
   128   65   69 1    
   129   65  131 1    
   130   66   67 am   BACKBONE|DICT|INTERRES
   131   66   68 2    
   132   67  132 1    
   133   67  133 1    
   134   69   70 1    
   135   69  134 1    
   136   69  135 1    
   137   70   71 1    
   138   71  136 1    
   139   71  137 1    
@<TRIPOS>SUBSTRUCTURE
     1 UNK         1 GROUP             0       ****    0 ROOT    
