@<TRIPOS>MOLECULE
3R137
137   139    1
SMALL
USER_CHARGES


@<TRIPOS>ATOM
      1 CA         24.3882   -6.2856   -3.9032 C.3       0 UNK        -0.2020 
      2 C          24.8667   -5.3351   -2.8177 C.2       0 UNK         0.4855 
      3 O          24.0518   -4.6621   -2.1859 O.2       0 UNK        -0.5197 
      4 N          26.1891   -5.2790   -2.6110 N.am      1 UNK        -0.4892 
      5 CA         26.8997   -4.4590   -1.6208 C.3       1 UNK         0.0835 
      6 C6         28.4185   -4.7616   -1.6852 C.3       12 UNK        -0.0855 
      7 S7         29.3401   -4.1560   -0.2323 S.3       12 UNK        -0.2931 
      8 C8         31.0076   -3.9165   -0.9380 C.3       12 UNK         0.0378 
      9 C9         31.0366   -2.8353   -2.0114 C.ar      12 UNK        -0.0802 
     10 C10        31.4292   -3.1377   -3.3189 C.ar      12 UNK        -0.0944 
     11 C11        31.4301   -2.1476   -4.3074 C.ar      12 UNK        -0.0787 
     12 C12        31.0190   -0.8492   -3.9863 C.ar      12 UNK        -0.0862 
     13 C13        30.6348   -0.5344   -2.6789 C.ar      12 UNK        -0.0733 
     14 C14        30.6635   -1.5276   -1.6957 C.ar      12 UNK        -0.0832 
     15 C15        30.1779    0.8691   -2.3126 C.3       12 UNK         0.0240 
     16 S16        28.4560    0.8422   -1.7226 S.3       12 UNK        -0.2522 
     17 C17        27.5997    1.9984   -2.8360 C.3       12 UNK        -0.0967 
     18 CA         27.6325    1.6416   -4.3463 C.3       5 UNK         0.0660 
     19 N          27.3620    0.2308   -4.6507 N.am      5 UNK        -0.4015 
     20 C          27.5072   -0.3110   -5.8719 C.2       4 UNK         0.4946 
     21 O          27.9861    0.2893   -6.8308 O.2       4 UNK        -0.5353 
     22 CA         26.9753   -1.7348   -6.0926 C.3       4 UNK         0.0277 
     23 CB         28.0599   -2.7869   -5.8089 C.3       4 UNK        -0.1981 
     24 N          25.7789   -1.9918   -5.2891 N.am      4 UNK        -0.4209 
     25 C          24.5725   -1.4703   -5.5648 C.2       3 UNK         0.4942 
     26 O          24.3402   -0.7899   -6.5630 O.2       3 UNK        -0.5208 
     27 CA         23.4426   -1.7015   -4.5451 C.3       3 UNK         0.0250 
     28 CB         22.6397   -2.9600   -4.9051 C.3       3 UNK        -0.1990 
     29 N          23.9276   -1.7926   -3.1657 N.am      3 UNK        -0.4232 
     30 C          24.4834   -0.7667   -2.5024 C.2       2 UNK         0.4993 
     31 O          24.5696    0.3722   -2.9643 O.2       2 UNK        -0.5286 
     32 CA         25.1035   -1.0701   -1.1249 C.3       2 UNK         0.0209 
     33 CB         24.0755   -0.8284   -0.0091 C.3       2 UNK        -0.1931 
     34 N          25.6485   -2.4287   -1.0024 N.am      2 UNK        -0.4546 
     35 C          26.5823   -2.9581   -1.8071 C.2       1 UNK         0.5154 
     36 O          27.1116   -2.3323   -2.7253 O.2       1 UNK        -0.5181 
     37 C          26.6685    2.5682   -5.1124 C.2       5 UNK         0.5014 
     38 O          27.1196    3.5288   -5.7363 O.2       5 UNK        -0.5248 
     39 N          25.3647    2.2497   -5.0711 N.am      6 UNK        -0.4434 
     40 CA         24.3007    2.9787   -5.7706 C.3       6 UNK         0.0363 
     41 CB         22.9335    2.4028   -5.3704 C.3       6 UNK        -0.1936 
     42 C          24.4644    2.9769   -7.3015 C.2       6 UNK         0.5081 
     43 O          24.2089    3.9975   -7.9404 O.2       6 UNK        -0.5248 
     44 N          24.9223    1.8474   -7.8563 N.am      7 UNK        -0.4718 
     45 CA         25.2565    1.6810   -9.2736 C.3       7 UNK         0.0273 
     46 CB         25.1850    0.1835   -9.6183 C.3       7 UNK        -0.1935 
     47 C          26.6363    2.2515   -9.6604 C.2       7 UNK         0.5018 
     48 O          27.0033    2.1620  -10.8335 O.2       7 UNK        -0.5186 
     49 N          27.3992    2.7741   -8.6880 N.am      8 UNK        -0.4240 
     50 CA         28.7928    3.2397   -8.7476 C.3       8 UNK         0.0235 
     51 CB         28.9881    4.3764   -9.7700 C.3       8 UNK        -0.2000 
     52 C          29.8113    2.1055   -8.9574 C.2       8 UNK         0.4941 
     53 O          30.7985    2.0456   -8.2223 O.2       8 UNK        -0.5273 
     54 N          29.5542    1.2330   -9.9427 N.am      9 UNK        -0.4262 
     55 CA         30.2302   -0.0237  -10.2988 C.3       9 UNK         0.0264 
     56 CB         30.0804   -1.0572   -9.1665 C.3       9 UNK        -0.1955 
     57 C          31.7029    0.0867  -10.7368 C.2       9 UNK         0.5031 
     58 O          32.0944   -0.6200  -11.6666 O.2       9 UNK        -0.5390 
     59 N          32.4873    0.9385  -10.0623 N.am      10 UNK        -0.4204 
     60 CA         33.9342    1.1421  -10.2089 C.3       10 UNK         0.0237 
     61 CB         34.2627    1.7953  -11.5687 C.3       10 UNK        -0.1985 
     62 C          34.7338   -0.1504   -9.9449 C.2       10 UNK         0.4970 
     63 O          35.6456   -0.4826  -10.7049 O.2       10 UNK        -0.4914 
     64 N          34.3560   -0.8650   -8.8760 N.am      11 UNK        -0.4285 
     65 CA         34.9365   -2.1556   -8.4739 C.3       11 UNK         0.1007 
     66 C          36.3891   -2.0987   -7.9117 C.2       11 UNK         0.5703 
     67 N          36.9413   -0.9303   -7.6055 N.am      11 UNK        -0.7361 
     68 O          37.0309   -3.1364   -7.7650 O.2       11 UNK        -0.4986 
     69 C69        33.9724   -2.9469   -7.5491 C.3       12 UNK        -0.0947 
     70 S70        33.6426   -2.1338   -5.9465 S.3       12 UNK        -0.2240 
     71 C71        31.8737   -2.4862   -5.7215 C.3       12 UNK         0.0194 
     72 H72        24.8462   -6.0396   -4.8610 H         1 UNK         0.0906 
     73 H73        24.6429   -7.3143   -3.6494 H         1 UNK         0.0906 
     74 H74        23.3061   -6.2261   -4.0196 H         1 UNK         0.0906 
     75 H75        26.7849   -5.8513   -3.1924 H         1 UNK         0.3140 
     76 H76        26.5370   -4.7655   -0.6373 H         1 UNK         0.1085 
     77 H77        28.5821   -5.8397   -1.7295 H         1 UNK         0.0836 
     78 H78        28.8486   -4.3594   -2.6041 H         1 UNK         0.0836 
     79 H79        31.3660   -4.8685   -1.3328 H         1 UNK         0.0731 
     80 H80        31.6937   -3.6380   -0.1369 H         1 UNK         0.0731 
     81 H81        31.7342   -4.1444   -3.5703 H         1 UNK         0.1312 
     82 H82        31.0040   -0.0867   -4.7533 H         1 UNK         0.1406 
     83 H83        30.3568   -1.2897   -0.6861 H         1 UNK         0.1631 
     84 H84        30.2918    1.5527   -3.1538 H         1 UNK         0.0717 
     85 H85        30.8162    1.2566   -1.5175 H         1 UNK         0.0717 
     86 H86        26.5712    2.0603   -2.4751 H         1 UNK         0.0934 
     87 H87        28.0237    2.9924   -2.6802 H         1 UNK         0.0934 
     88 H88        28.6360    1.8529   -4.7203 H         1 UNK         0.0739 
     89 H89        27.0244   -0.3474   -3.8912 H         1 UNK         0.3093 
     90 H90        26.6980   -1.8254   -7.1451 H         1 UNK         0.0818 
     91 H91        28.8765   -2.6937   -6.5252 H         1 UNK         0.0819 
     92 H92        28.4946   -2.6750   -4.8158 H         1 UNK         0.0819 
     93 H93        27.6680   -3.8002   -5.8942 H         1 UNK         0.0819 
     94 H94        25.9302   -2.4550   -4.4004 H         1 UNK         0.3041 
     95 H95        22.7671   -0.8454   -4.6004 H         1 UNK         0.0784 
     96 H96        22.1776   -2.8555   -5.8877 H         1 UNK         0.0793 
     97 H97        23.2723   -3.8458   -4.9395 H         1 UNK         0.0793 
     98 H98        21.8396   -3.1434   -4.1877 H         1 UNK         0.0793 
     99 H99        23.9049   -2.7072   -2.7232 H         1 UNK         0.3024 
    100 H100       25.9298   -0.3721   -0.9845 H         1 UNK         0.1171 
    101 H101       24.5263   -0.9396    0.9772 H         1 UNK         0.0786 
    102 H102       23.6699    0.1830   -0.0654 H         1 UNK         0.0786 
    103 H103       23.2357   -1.5213   -0.0765 H         1 UNK         0.0786 
    104 H104       25.2123   -3.0272   -0.3153 H         1 UNK         0.2977 
    105 H105       25.0749    1.4741   -4.4791 H         1 UNK         0.3127 
    106 H106       24.3438    4.0174   -5.4363 H         1 UNK         0.0770 
    107 H107       22.8229    1.3672   -5.6922 H         1 UNK         0.0814 
    108 H108       22.1228    2.9730   -5.8258 H         1 UNK         0.0814 
    109 H109       22.7878    2.4358   -4.2905 H         1 UNK         0.0814 
    110 H110       25.0372    1.0290   -7.2665 H         1 UNK         0.2983 
    111 H111       24.5111    2.2066   -9.8743 H         1 UNK         0.0947 
    112 H112       25.3608    0.0134  -10.6813 H         1 UNK         0.0806 
    113 H113       24.2049   -0.2321   -9.3831 H         1 UNK         0.0806 
    114 H114       25.9322   -0.3891   -9.0674 H         1 UNK         0.0806 
    115 H115       27.0142    2.7611   -7.7504 H         1 UNK         0.3000 
    116 H116       28.9964    3.6554   -7.7595 H         1 UNK         0.0850 
    117 H117       29.9995    4.7801   -9.7091 H         1 UNK         0.0810 
    118 H118       28.2987    5.1994   -9.5817 H         1 UNK         0.0810 
    119 H119       28.8377    4.0409  -10.7962 H         1 UNK         0.0810 
    120 H120       28.7181    1.4360  -10.4862 H         1 UNK         0.3040 
    121 H121       29.6849   -0.4079  -11.1623 H         1 UNK         0.0766 
    122 H122       30.5266   -0.7001   -8.2391 H         1 UNK         0.0812 
    123 H123       30.5633   -2.0012   -9.4231 H         1 UNK         0.0812 
    124 H124       29.0307   -1.2718   -8.9660 H         1 UNK         0.0812 
    125 H125       32.0331    1.4483   -9.3022 H         1 UNK         0.3205 
    126 H126       34.2254    1.8456   -9.4276 H         1 UNK         0.0754 
    127 H127       35.3205    2.0536  -11.6328 H         1 UNK         0.0769 
    128 H128       33.6962    2.7153  -11.7129 H         1 UNK         0.0769 
    129 H129       34.0397    1.1302  -12.4036 H         1 UNK         0.0769 
    130 H130       33.6148   -0.5141   -8.2884 H         1 UNK         0.2981 
    131 H131       35.0217   -2.7428   -9.3903 H         1 UNK         0.0541 
    132 H132       36.4225   -0.0751   -7.7193 H         1 UNK         0.3459 
    133 H133       37.8834   -0.9076   -7.2486 H         1 UNK         0.3459 
    134 H134       34.3656   -3.9456   -7.3510 H         1 UNK         0.0612 
    135 H135       33.0262   -3.1031   -8.0699 H         1 UNK         0.0612 
    136 H136       31.2945   -1.9123   -6.4437 H         1 UNK         0.0624 
    137 H137       31.6811   -3.5393   -5.9328 H         1 UNK         0.0624 
@<TRIPOS>BOND
     1    1    2 1    
     2    1   72 1    
     3    1   73 1    
     4    1   74 1    
     5    2    3 2    
     6    2    4 am   BACKBONE|DICT|INTERRES
     7    4    5 1    
     8    4   75 1    
     9    5    6 1    
    10    5   35 1    
    11    5   76 1    
    12    6    7 1    
    13    6   77 1    
    14    6   78 1    
    15    7    8 1    
    16    8    9 1    
    17    8   79 1    
    18    8   80 1    
    19    9   10 ar   
    20    9   14 ar   
    21   10   11 ar   
    22   10   81 1    
    23   11   12 ar   
    24   11   71 1    
    25   12   13 ar   
    26   12   82 1    
    27   13   14 ar   
    28   13   15 1    
    29   14   83 1    
    30   15   16 1    
    31   15   84 1    
    32   15   85 1    
    33   16   17 1    
    34   17   18 1    
    35   17   86 1    
    36   17   87 1    
    37   18   19 1    
    38   18   37 1    
    39   18   88 1    
    40   19   20 am   BACKBONE|DICT|INTERRES
    41   19   89 1    
    42   20   21 2    
    43   20   22 1    
    44   22   23 1    
    45   22   24 1    
    46   22   90 1    
    47   23   91 1    
    48   23   92 1    
    49   23   93 1    
    50   24   25 am   BACKBONE|DICT|INTERRES
    51   24   94 1    
    52   25   26 2    
    53   25   27 1    
    54   27   28 1    
    55   27   29 1    
    56   27   95 1    
    57   28   96 1    
    58   28   97 1    
    59   28   98 1    
    60   29   30 am   BACKBONE|DICT|INTERRES
    61   29   99 1    
    62   30   31 2    
    63   30   32 1    
    64   32   33 1    
    65   32   34 1    
    66   32  100 1    
    67   33  101 1    
    68   33  102 1    
    69   33  103 1    
    70   34   35 am   BACKBONE|DICT|INTERRES
    71   34  104 1    
    72   35   36 2    
    73   37   38 2    
    74   37   39 am   BACKBONE|DICT|INTERRES
    75   39   40 1    
    76   39  105 1    
    77   40   41 1    
    78   40   42 1    
    79   40  106 1    
    80   41  107 1    
    81   41  108 1    
    82   41  109 1    
    83   42   43 2    
    84   42   44 am   BACKBONE|DICT|INTERRES
    85   44   45 1    
    86   44  110 1    
    87   45   46 1    
    88   45   47 1    
    89   45  111 1    
    90   46  112 1    
    91   46  113 1    
    92   46  114 1    
    93   47   48 2    
    94   47   49 am   BACKBONE|DICT|INTERRES
    95   49   50 1    
    96   49  115 1    
    97   50   51 1    
    98   50   52 1    
    99   50  116 1    
   100   51  117 1    
   101   51  118 1    
   102   51  119 1    
   103   52   53 2    
   104   52   54 am   BACKBONE|DICT|INTERRES
   105   54   55 1    
   106   54  120 1    
   107   55   56 1    
   108   55   57 1    
   109   55  121 1    
   110   56  122 1    
   111   56  123 1    
   112   56  124 1    
   113   57   58 2    
   114   57   59 am   BACKBONE|DICT|INTERRES
   115   59   60 1    
   116   59  125 1    
   117   60   61 1    
   118   60   62 1    
   119   60  126 1    
   120   61  127 1    
   121   61  128 1    
   122   61  129 1    
   123   62   63 2    
   124   62   64 am   BACKBONE|DICT|INTERRES
   125   64   65 1    
   126   64  130 1    
   127   65   66 1    
   128   65   69 1    
   129   65  131 1    
   130   66   67 am   BACKBONE|DICT|INTERRES
   131   66   68 2    
   132   67  132 1    
   133   67  133 1    
   134   69   70 1    
   135   69  134 1    
   136   69  135 1    
   137   70   71 1    
   138   71  136 1    
   139   71  137 1    
@<TRIPOS>SUBSTRUCTURE
     1 UNK         1 GROUP             0       ****    0 ROOT    
