@<TRIPOS>MOLECULE
3R137
137   139    1
SMALL
USER_CHARGES


@<TRIPOS>ATOM
      1 CA         25.7053   -5.8033   -0.7589 C.3       0 UNK        -0.2020 
      2 C          25.7591   -4.5821    0.1458 C.2       0 UNK         0.4855 
      3 O          25.0131   -4.5042    1.1219 O.2       0 UNK        -0.5197 
      4 N          26.6165   -3.6084   -0.1825 N.am      1 UNK        -0.4892 
      5 CA         26.8451   -2.3533    0.5503 C.3       1 UNK         0.0835 
      6 C6         28.2737   -1.8081    0.2759 C.3       12 UNK        -0.0855 
      7 S7         28.6448   -1.5943   -1.5024 S.3       12 UNK        -0.2931 
      8 C8         30.0411   -2.7280   -1.7467 C.3       12 UNK         0.0378 
      9 C9         30.4681   -2.7311   -3.2060 C.ar      12 UNK        -0.0802 
     10 C10        31.3333   -1.7428   -3.6859 C.ar      12 UNK        -0.0944 
     11 C11        31.7275   -1.7359   -5.0271 C.ar      12 UNK        -0.0787 
     12 C12        31.2580   -2.7339   -5.8848 C.ar      12 UNK        -0.0862 
     13 C13        30.3865   -3.7227   -5.4207 C.ar      12 UNK        -0.0733 
     14 C14        29.9937   -3.7157   -4.0784 C.ar      12 UNK        -0.0832 
     15 C15        29.8861   -4.8093   -6.3642 C.3       12 UNK         0.0240 
     16 S16        28.8966   -4.1496   -7.7458 S.3       12 UNK        -0.2522 
     17 C17        27.4773   -3.4006   -6.8789 C.3       12 UNK        -0.0967 
     18 CA         27.1160   -1.9967   -7.4254 C.3       5 UNK         0.0660 
     19 N          25.7312   -1.6490   -7.0846 N.am      5 UNK        -0.4015 
     20 C          25.0952   -0.4988   -7.3548 C.2       4 UNK         0.4946 
     21 O          25.5933    0.4213   -8.0043 O.2       4 UNK        -0.5353 
     22 CA         23.6800   -0.3193   -6.7738 C.3       4 UNK         0.0277 
     23 CB         22.6305   -0.4233   -7.8920 C.3       4 UNK        -0.1981 
     24 N          23.3364   -1.2577   -5.6959 N.am      4 UNK        -0.4209 
     25 C          23.9422   -1.3261   -4.5012 C.2       3 UNK         0.4942 
     26 O          24.8992   -0.6206   -4.1731 O.2       3 UNK        -0.5208 
     27 CA         23.4463   -2.4386   -3.5635 C.3       3 UNK         0.0250 
     28 CB         24.2000   -3.7489   -3.8521 C.3       3 UNK        -0.1990 
     29 N          23.6247   -2.1014   -2.1525 N.am      3 UNK        -0.4232 
     30 C          22.9306   -1.1777   -1.4729 C.2       2 UNK         0.4993 
     31 O          22.0283   -0.5010   -1.9687 O.2       2 UNK        -0.5286 
     32 CA         23.2685   -1.0027    0.0219 C.3       2 UNK         0.0209 
     33 CB         22.0906   -1.4593    0.8999 C.3       2 UNK        -0.1931 
     34 N          24.4652   -1.7531    0.4164 N.am      2 UNK        -0.4546 
     35 C          25.7234   -1.3123    0.2985 C.2       1 UNK         0.5154 
     36 O          25.9972   -0.1537   -0.0190 O.2       1 UNK        -0.5181 
     37 C          28.1364   -0.9178   -6.9936 C.2       5 UNK         0.5014 
     38 O          29.0656   -0.6295   -7.7504 O.2       5 UNK        -0.5248 
     39 N          27.8855   -0.2747   -5.8417 N.am      6 UNK        -0.4434 
     40 CA         28.6480    0.8599   -5.3128 C.3       6 UNK         0.0363 
     41 CB         28.0136    1.3093   -3.9878 C.3       6 UNK        -0.1936 
     42 C          28.7448    2.0667   -6.2652 C.2       6 UNK         0.5081 
     43 O          29.7256    2.8053   -6.1892 O.2       6 UNK        -0.5248 
     44 N          27.7393    2.2488   -7.1314 N.am      7 UNK        -0.4718 
     45 CA         27.7030    3.2857   -8.1611 C.3       7 UNK         0.0273 
     46 CB         26.3271    3.9717   -8.1388 C.3       7 UNK        -0.1935 
     47 C          27.9862    2.6989   -9.5512 C.2       7 UNK         0.5018 
     48 O          28.7044    3.3272  -10.3283 O.2       7 UNK        -0.5186 
     49 N          27.4123    1.5229   -9.8482 N.am      8 UNK        -0.4240 
     50 CA         27.4849    0.8689  -11.1569 C.3       8 UNK         0.0235 
     51 CB         26.4465   -0.2620  -11.2339 C.3       8 UNK        -0.2000 
     52 C          28.8882    0.3538  -11.5130 C.2       8 UNK         0.4941 
     53 O          29.3356    0.5765  -12.6390 O.2       8 UNK        -0.5273 
     54 N          29.5589   -0.3128  -10.5625 N.am      9 UNK        -0.4262 
     55 CA         30.9436   -0.7706  -10.7162 C.3       9 UNK         0.0264 
     56 CB         31.1397   -2.0930   -9.9617 C.3       9 UNK        -0.1955 
     57 C          31.9474    0.2861  -10.2300 C.2       9 UNK         0.5031 
     58 O          33.0899    0.2802  -10.6903 O.2       9 UNK        -0.5390 
     59 N          31.5116    1.1677   -9.3168 N.am      10 UNK        -0.4204 
     60 CA         32.1880    2.3549   -8.7706 C.3       10 UNK         0.0237 
     61 CB         32.5020    3.3730   -9.8842 C.3       10 UNK        -0.1985 
     62 C          33.4354    2.0892   -7.9062 C.2       10 UNK         0.4970 
     63 O          33.6573    2.8339   -6.9513 O.2       10 UNK        -0.4914 
     64 N          34.2223    1.0605   -8.2454 N.am      11 UNK        -0.4285 
     65 CA         35.4853    0.6657   -7.5950 C.3       11 UNK         0.1007 
     66 C          36.6418    1.7026   -7.7545 C.2       11 UNK         0.5703 
     67 N          36.5746    2.6265   -8.7064 N.am      11 UNK        -0.7361 
     68 O          37.6351    1.6529   -7.0322 O.2       11 UNK        -0.4986 
     69 C69        35.2917    0.1930   -6.1233 C.3       12 UNK        -0.0947 
     70 S70        34.2835   -1.3201   -5.9847 S.3       12 UNK        -0.2240 
     71 C71        32.6492   -0.6470   -5.5544 C.3       12 UNK         0.0194 
     72 H72        26.0124   -6.6912   -0.2068 H         1 UNK         0.0906 
     73 H73        24.6885   -5.9609   -1.1175 H         1 UNK         0.0906 
     74 H74        26.3580   -5.6994   -1.6256 H         1 UNK         0.0906 
     75 H75        27.1823   -3.7053   -1.0143 H         1 UNK         0.3140 
     76 H76        26.7945   -2.5773    1.6185 H         1 UNK         0.1085 
     77 H77        28.4309   -0.8545    0.7836 H         1 UNK         0.0836 
     78 H78        29.0061   -2.4883    0.7136 H         1 UNK         0.0836 
     79 H79        29.7602   -3.7330   -1.4277 H         1 UNK         0.0731 
     80 H80        30.8755   -2.4213   -1.1138 H         1 UNK         0.0731 
     81 H81        31.6913   -0.9747   -3.0139 H         1 UNK         0.1312 
     82 H82        31.5729   -2.7411   -6.9174 H         1 UNK         0.1406 
     83 H83        29.3210   -4.4783   -3.7099 H         1 UNK         0.1631 
     84 H84        29.2919   -5.5506   -5.8276 H         1 UNK         0.0717 
     85 H85        30.7446   -5.3438   -6.7731 H         1 UNK         0.0717 
     86 H86        26.6394   -4.0852   -7.0203 H         1 UNK         0.0934 
     87 H87        27.6504   -3.3670   -5.8020 H         1 UNK         0.0934 
     88 H88        27.1492   -2.0435   -8.5143 H         1 UNK         0.0739 
     89 H89        25.2220   -2.3368   -6.5518 H         1 UNK         0.3093 
     90 H90        23.6370    0.6892   -6.3571 H         1 UNK         0.0818 
     91 H91        21.6305   -0.1968   -7.5216 H         1 UNK         0.0819 
     92 H92        22.8429    0.2852   -8.6943 H         1 UNK         0.0819 
     93 H93        22.6088   -1.4195   -8.3358 H         1 UNK         0.0819 
     94 H94        22.5699   -1.8891   -5.8835 H         1 UNK         0.3041 
     95 H95        22.3800   -2.5974   -3.7395 H         1 UNK         0.0784 
     96 H96        24.0592   -4.0667   -4.8860 H         1 UNK         0.0793 
     97 H97        25.2732   -3.6436   -3.6856 H         1 UNK         0.0793 
     98 H98        23.8406   -4.5602   -3.2187 H         1 UNK         0.0793 
     99 H99        24.3754   -2.5680   -1.6682 H         1 UNK         0.3024 
    100 H100       23.4336    0.0636    0.1936 H         1 UNK         0.1171 
    101 H101       22.2984   -1.2960    1.9576 H         1 UNK         0.0786 
    102 H102       21.1837   -0.9023    0.6602 H         1 UNK         0.0786 
    103 H103       21.8700   -2.5184    0.7605 H         1 UNK         0.0786 
    104 H104       24.3367   -2.7177    0.7116 H         1 UNK         0.2977 
    105 H105       27.0750   -0.5524   -5.3029 H         1 UNK         0.3127 
    106 H106       29.6625    0.5080   -5.1159 H         1 UNK         0.0770 
    107 H107       27.0013    1.6887   -4.1341 H         1 UNK         0.0814 
    108 H108       28.5985    2.1039   -3.5227 H         1 UNK         0.0814 
    109 H109       27.9561    0.4904   -3.2744 H         1 UNK         0.0814 
    110 H110       26.9832    1.5721   -7.1494 H         1 UNK         0.2983 
    111 H111       28.4617    4.0463   -7.9629 H         1 UNK         0.0947 
    112 H112       26.2669    4.7505   -8.9003 H         1 UNK         0.0806 
    113 H113       26.1385    4.4456   -7.1755 H         1 UNK         0.0806 
    114 H114       25.5171    3.2657   -8.3279 H         1 UNK         0.0806 
    115 H115       26.7981    1.0931   -9.1584 H         1 UNK         0.3000 
    116 H116       27.2146    1.6159  -11.9066 H         1 UNK         0.0850 
    117 H117       26.4434   -0.7207  -12.2236 H         1 UNK         0.0810 
    118 H118       25.4393    0.1109  -11.0462 H         1 UNK         0.0810 
    119 H119       26.6498   -1.0506  -10.5114 H         1 UNK         0.0810 
    120 H120       29.1401   -0.4454   -9.6448 H         1 UNK         0.3040 
    121 H121       31.1539   -0.9600  -11.7711 H         1 UNK         0.0766 
    122 H122       30.9582   -1.9736   -8.8959 H         1 UNK         0.0812 
    123 H123       32.1579   -2.4658  -10.0804 H         1 UNK         0.0812 
    124 H124       30.4644   -2.8650  -10.3307 H         1 UNK         0.0812 
    125 H125       30.5774    1.0147   -8.9615 H         1 UNK         0.3205 
    126 H126       31.4572    2.8227   -8.1114 H         1 UNK         0.0754 
    127 H127       32.9135    4.2930   -9.4667 H         1 UNK         0.0769 
    128 H128       31.6010    3.6432  -10.4357 H         1 UNK         0.0769 
    129 H129       33.2292    2.9871  -10.5992 H         1 UNK         0.0769 
    130 H130       33.9782    0.5562   -9.0943 H         1 UNK         0.2981 
    131 H131       35.8343   -0.1982   -8.1614 H         1 UNK         0.0541 
    132 H132       37.3314    3.2839   -8.8099 H         1 UNK         0.3459 
    133 H133       35.7785    2.6697   -9.3215 H         1 UNK         0.3459 
    134 H134       34.8717    0.9857   -5.5035 H         1 UNK         0.0612 
    135 H135       36.2548   -0.0515   -5.6727 H         1 UNK         0.0612 
    136 H136       32.7619    0.1478   -4.8157 H         1 UNK         0.0624 
    137 H137       32.1984   -0.1922   -6.4373 H         1 UNK         0.0624 
@<TRIPOS>BOND
     1    1    2 1    
     2    1   72 1    
     3    1   73 1    
     4    1   74 1    
     5    2    3 2    
     6    2    4 am   BACKBONE|DICT|INTERRES
     7    4    5 1    
     8    4   75 1    
     9    5    6 1    
    10    5   35 1    
    11    5   76 1    
    12    6    7 1    
    13    6   77 1    
    14    6   78 1    
    15    7    8 1    
    16    8    9 1    
    17    8   79 1    
    18    8   80 1    
    19    9   10 ar   
    20    9   14 ar   
    21   10   11 ar   
    22   10   81 1    
    23   11   12 ar   
    24   11   71 1    
    25   12   13 ar   
    26   12   82 1    
    27   13   14 ar   
    28   13   15 1    
    29   14   83 1    
    30   15   16 1    
    31   15   84 1    
    32   15   85 1    
    33   16   17 1    
    34   17   18 1    
    35   17   86 1    
    36   17   87 1    
    37   18   19 1    
    38   18   37 1    
    39   18   88 1    
    40   19   20 am   BACKBONE|DICT|INTERRES
    41   19   89 1    
    42   20   21 2    
    43   20   22 1    
    44   22   23 1    
    45   22   24 1    
    46   22   90 1    
    47   23   91 1    
    48   23   92 1    
    49   23   93 1    
    50   24   25 am   BACKBONE|DICT|INTERRES
    51   24   94 1    
    52   25   26 2    
    53   25   27 1    
    54   27   28 1    
    55   27   29 1    
    56   27   95 1    
    57   28   96 1    
    58   28   97 1    
    59   28   98 1    
    60   29   30 am   BACKBONE|DICT|INTERRES
    61   29   99 1    
    62   30   31 2    
    63   30   32 1    
    64   32   33 1    
    65   32   34 1    
    66   32  100 1    
    67   33  101 1    
    68   33  102 1    
    69   33  103 1    
    70   34   35 am   BACKBONE|DICT|INTERRES
    71   34  104 1    
    72   35   36 2    
    73   37   38 2    
    74   37   39 am   BACKBONE|DICT|INTERRES
    75   39   40 1    
    76   39  105 1    
    77   40   41 1    
    78   40   42 1    
    79   40  106 1    
    80   41  107 1    
    81   41  108 1    
    82   41  109 1    
    83   42   43 2    
    84   42   44 am   BACKBONE|DICT|INTERRES
    85   44   45 1    
    86   44  110 1    
    87   45   46 1    
    88   45   47 1    
    89   45  111 1    
    90   46  112 1    
    91   46  113 1    
    92   46  114 1    
    93   47   48 2    
    94   47   49 am   BACKBONE|DICT|INTERRES
    95   49   50 1    
    96   49  115 1    
    97   50   51 1    
    98   50   52 1    
    99   50  116 1    
   100   51  117 1    
   101   51  118 1    
   102   51  119 1    
   103   52   53 2    
   104   52   54 am   BACKBONE|DICT|INTERRES
   105   54   55 1    
   106   54  120 1    
   107   55   56 1    
   108   55   57 1    
   109   55  121 1    
   110   56  122 1    
   111   56  123 1    
   112   56  124 1    
   113   57   58 2    
   114   57   59 am   BACKBONE|DICT|INTERRES
   115   59   60 1    
   116   59  125 1    
   117   60   61 1    
   118   60   62 1    
   119   60  126 1    
   120   61  127 1    
   121   61  128 1    
   122   61  129 1    
   123   62   63 2    
   124   62   64 am   BACKBONE|DICT|INTERRES
   125   64   65 1    
   126   64  130 1    
   127   65   66 1    
   128   65   69 1    
   129   65  131 1    
   130   66   67 am   BACKBONE|DICT|INTERRES
   131   66   68 2    
   132   67  132 1    
   133   67  133 1    
   134   69   70 1    
   135   69  134 1    
   136   69  135 1    
   137   70   71 1    
   138   71  136 1    
   139   71  137 1    
@<TRIPOS>SUBSTRUCTURE
     1 UNK         1 GROUP             0       ****    0 ROOT    
