@<TRIPOS>MOLECULE
3R137
137   139    1
SMALL
USER_CHARGES


@<TRIPOS>ATOM
      1 CA         24.7203   -7.9331   -0.3327 C.3       0 UNK        -0.2020 
      2 C          25.0466   -6.4599   -0.5277 C.2       0 UNK         0.4855 
      3 O          24.7646   -5.6497    0.3551 O.2       0 UNK        -0.5197 
      4 N          25.6431   -6.1089   -1.6753 N.am      1 UNK        -0.4892 
      5 CA         26.0013   -4.7346   -2.0506 C.3       1 UNK         0.0835 
      6 C6         26.9735   -4.7294   -3.2569 C.3       12 UNK        -0.0855 
      7 S7         27.9027   -3.1699   -3.4377 S.3       12 UNK        -0.2931 
      8 C8         29.5373   -3.6311   -2.7835 C.3       12 UNK         0.0378 
      9 C9         30.5892   -2.6235   -3.2183 C.ar      12 UNK        -0.0802 
     10 C10        31.3310   -2.8487   -4.3817 C.ar      12 UNK        -0.0944 
     11 C11        32.2725   -1.9129   -4.8189 C.ar      12 UNK        -0.0787 
     12 C12        32.4616   -0.7388   -4.0805 C.ar      12 UNK        -0.0862 
     13 C13        31.7472   -0.5142   -2.9010 C.ar      12 UNK        -0.0733 
     14 C14        30.8120   -1.4621   -2.4725 C.ar      12 UNK        -0.0832 
     15 C15        32.0002    0.7460   -2.0854 C.3       12 UNK         0.0240 
     16 S16        30.5359    1.8214   -1.9953 S.3       12 UNK        -0.2522 
     17 C17        30.3338    2.3664   -3.7296 C.3       12 UNK        -0.0967 
     18 CA         29.2843    1.5454   -4.5269 C.3       5 UNK         0.0660 
     19 N          28.0806    1.2763   -3.7353 N.am      5 UNK        -0.4015 
     20 C          27.0182    0.5410   -4.0880 C.2       4 UNK         0.4946 
     21 O          26.8611    0.0553   -5.2111 O.2       4 UNK        -0.5353 
     22 CA         25.9944    0.2969   -2.9597 C.3       4 UNK         0.0277 
     23 CB         25.8448    1.5037   -2.0025 C.3       4 UNK        -0.1981 
     24 N          24.6695   -0.1430   -3.4049 N.am      4 UNK        -0.4209 
     25 C          23.8013    0.5113   -4.1923 C.2       3 UNK         0.4942 
     26 O          24.0643    1.5656   -4.7753 O.2       3 UNK        -0.5208 
     27 CA         22.3608   -0.0510   -4.2639 C.3       3 UNK         0.0250 
     28 CB         21.7048    0.0805   -5.6542 C.3       3 UNK        -0.1990 
     29 N          22.1963   -1.4070   -3.7198 N.am      3 UNK        -0.4232 
     30 C          22.7063   -2.5482   -4.2049 C.2       2 UNK         0.4993 
     31 O          23.3565   -2.6388   -5.2477 O.2       2 UNK        -0.5286 
     32 CA         22.4799   -3.8055   -3.3468 C.3       2 UNK         0.0209 
     33 CB         21.5827   -4.8165   -4.0799 C.3       2 UNK        -0.1931 
     34 N          23.7443   -4.4517   -2.9832 N.am      2 UNK        -0.4546 
     35 C          24.7503   -3.8668   -2.3131 C.2       1 UNK         0.5154 
     36 O          24.7026   -2.7121   -1.8835 O.2       1 UNK        -0.5181 
     37 C          28.9943    2.2299   -5.8777 C.2       5 UNK         0.5014 
     38 O          29.7424    2.0189   -6.8329 O.2       5 UNK        -0.5248 
     39 N          27.9220    3.0343   -5.9327 N.am      6 UNK        -0.4434 
     40 CA         27.4469    3.7187   -7.1349 C.3       6 UNK         0.0363 
     41 CB         26.3738    4.7505   -6.7527 C.3       6 UNK        -0.1936 
     42 C          26.9107    2.7399   -8.1901 C.2       6 UNK         0.5081 
     43 O          27.2729    2.8573   -9.3602 O.2       6 UNK        -0.5248 
     44 N          26.0971    1.7642   -7.7606 N.am      7 UNK        -0.4718 
     45 CA         25.5819    0.6939   -8.6213 C.3       7 UNK         0.0273 
     46 CB         24.4203   -0.0179   -7.9208 C.3       7 UNK        -0.1935 
     47 C          26.6734   -0.3081   -9.0255 C.2       7 UNK         0.5018 
     48 O          26.6279   -0.8391  -10.1352 O.2       7 UNK        -0.5186 
     49 N          27.6649   -0.4982   -8.1450 N.am      8 UNK        -0.4240 
     50 CA         28.8951   -1.2448   -8.4155 C.3       8 UNK         0.0235 
     51 CB         29.4955   -1.7098   -7.0808 C.3       8 UNK        -0.2000 
     52 C          29.9294   -0.4534   -9.2475 C.2       8 UNK         0.4941 
     53 O          31.0291   -0.9655   -9.4627 O.2       8 UNK        -0.5273 
     54 N          29.5859    0.7716   -9.6828 N.am      9 UNK        -0.4262 
     55 CA         30.3570    1.6762  -10.5454 C.3       9 UNK         0.0264 
     56 CB         30.3949    1.1252  -11.9863 C.3       9 UNK        -0.1955 
     57 C          31.7597    2.0079  -10.0016 C.2       9 UNK         0.5031 
     58 O          32.7169    2.0745  -10.7768 O.2       9 UNK        -0.5390 
     59 N          31.8692    2.1551   -8.6713 N.am      10 UNK        -0.4204 
     60 CA         33.1082    2.3506   -7.9040 C.3       10 UNK         0.0237 
     61 CB         33.6770    3.7642   -8.1473 C.3       10 UNK        -0.1985 
     62 C          34.1573    1.2378   -8.1279 C.2       10 UNK         0.4970 
     63 O          35.3559    1.4910   -7.9964 O.2       10 UNK        -0.4914 
     64 N          33.6770    0.0345   -8.4686 N.am      11 UNK        -0.4285 
     65 CA         34.4418   -1.1704   -8.8213 C.3       11 UNK         0.1007 
     66 C          35.1092   -1.0997  -10.2287 C.2       11 UNK         0.5703 
     67 N          34.7712   -0.1399  -11.0842 N.am      11 UNK        -0.7361 
     68 O          35.9299   -1.9491  -10.5688 O.2       11 UNK        -0.4986 
     69 C69        35.4270   -1.6530   -7.7116 C.3       12 UNK        -0.0947 
     70 S70        34.8063   -1.7380   -5.9892 S.3       12 UNK        -0.2240 
     71 C71        33.0307   -2.1500   -6.1202 C.3       12 UNK         0.0194 
     72 H72        25.0313   -8.5376   -1.1846 H         1 UNK         0.0906 
     73 H73        25.2243   -8.3145    0.5550 H         1 UNK         0.0906 
     74 H74        23.6470   -8.0646   -0.1979 H         1 UNK         0.0906 
     75 H75        25.8581   -6.8241   -2.3563 H         1 UNK         0.3140 
     76 H76        26.5203   -4.2959   -1.1949 H         1 UNK         0.1085 
     77 H77        26.4408   -4.9243   -4.1900 H         1 UNK         0.0836 
     78 H78        27.6904   -5.5461   -3.1597 H         1 UNK         0.0836 
     79 H79        29.8153   -4.6249   -3.1375 H         1 UNK         0.0731 
     80 H80        29.4912   -3.6905   -1.6950 H         1 UNK         0.0731 
     81 H81        31.1555   -3.7449   -4.9611 H         1 UNK         0.1312 
     82 H82        33.1742   -0.0007   -4.4220 H         1 UNK         0.1406 
     83 H83        30.2447   -1.2852   -1.5687 H         1 UNK         0.1631 
     84 H84        32.8391    1.3159   -2.4882 H         1 UNK         0.0717 
     85 H85        32.2859    0.4586   -1.0726 H         1 UNK         0.0717 
     86 H86        30.0493    3.4203   -3.6949 H         1 UNK         0.0934 
     87 H87        31.3011    2.3366   -4.2353 H         1 UNK         0.0934 
     88 H88        29.7216    0.5712   -4.7490 H         1 UNK         0.0739 
     89 H89        28.1281    1.6081   -2.7828 H         1 UNK         0.3093 
     90 H90        26.3935   -0.5364   -2.3793 H         1 UNK         0.0818 
     91 H91        26.7641    1.7050   -1.4518 H         1 UNK         0.0819 
     92 H92        25.5707    2.4133   -2.5387 H         1 UNK         0.0819 
     93 H93        25.0734    1.3179   -1.2548 H         1 UNK         0.0819 
     94 H94        24.3782   -1.0313   -3.0105 H         1 UNK         0.3041 
     95 H95        21.7908    0.5944   -3.5938 H         1 UNK         0.0784 
     96 H96        21.8010    1.0939   -6.0457 H         1 UNK         0.0793 
     97 H97        22.1471   -0.5984   -6.3814 H         1 UNK         0.0793 
     98 H98        20.6391   -0.1423   -5.6050 H         1 UNK         0.0793 
     99 H99        21.6918   -1.4512   -2.8445 H         1 UNK         0.3024 
    100 H100       21.9825   -3.5192   -2.4174 H         1 UNK         0.1171 
    101 H101       22.0444   -5.1706   -5.0027 H         1 UNK         0.0786 
    102 H102       21.3681   -5.6846   -3.4562 H         1 UNK         0.0786 
    103 H103       20.6257   -4.3661   -4.3471 H         1 UNK         0.0786 
    104 H104       23.8719   -5.4030   -3.2945 H         1 UNK         0.2977 
    105 H105       27.3631    3.1393   -5.0986 H         1 UNK         0.3127 
    106 H106       28.2926    4.2520   -7.5750 H         1 UNK         0.0770 
    107 H107       25.5105    4.2821   -6.2775 H         1 UNK         0.0814 
    108 H108       26.0122    5.2807   -7.6349 H         1 UNK         0.0814 
    109 H109       26.7698    5.4995   -6.0667 H         1 UNK         0.0814 
    110 H110       25.8764    1.6998   -6.7740 H         1 UNK         0.2983 
    111 H111       25.1980    1.1476   -9.5379 H         1 UNK         0.0947 
    112 H112       24.0076   -0.8100   -8.5469 H         1 UNK         0.0806 
    113 H113       23.6151    0.6843   -7.7100 H         1 UNK         0.0806 
    114 H114       24.7312   -0.4732   -6.9791 H         1 UNK         0.0806 
    115 H115       27.5769   -0.0708   -7.2284 H         1 UNK         0.3000 
    116 H116       28.6341   -2.1341   -8.9929 H         1 UNK         0.0850 
    117 H117       29.9297   -0.8799   -6.5248 H         1 UNK         0.0810 
    118 H118       30.2862   -2.4406   -7.2500 H         1 UNK         0.0810 
    119 H119       28.7490   -2.1859   -6.4441 H         1 UNK         0.0810 
    120 H120       28.6811    1.1303   -9.4036 H         1 UNK         0.3040 
    121 H121       29.8105    2.6201  -10.5647 H         1 UNK         0.0766 
    122 H122       30.9672    0.1986  -12.0474 H         1 UNK         0.0812 
    123 H123       29.3909    0.9250  -12.3605 H         1 UNK         0.0812 
    124 H124       30.8571    1.8397  -12.6686 H         1 UNK         0.0812 
    125 H125       31.0217    2.0661   -8.1074 H         1 UNK         0.3205 
    126 H126       32.8231    2.2846   -6.8529 H         1 UNK         0.0754 
    127 H127       34.5162    3.9705   -7.4820 H         1 UNK         0.0769 
    128 H128       32.9242    4.5308   -7.9631 H         1 UNK         0.0769 
    129 H129       34.0350    3.8842   -9.1704 H         1 UNK         0.0769 
    130 H130       32.6787   -0.0565   -8.6228 H         1 UNK         0.2981 
    131 H131       33.6890   -1.9508   -8.9334 H         1 UNK         0.0541 
    132 H132       35.2059   -0.1184  -11.9925 H         1 UNK         0.3459 
    133 H133       34.0863    0.5670  -10.8380 H         1 UNK         0.3459 
    134 H134       36.3109   -1.0134   -7.6988 H         1 UNK         0.0612 
    135 H135       35.7937   -2.6501   -7.9608 H         1 UNK         0.0612 
    136 H136       32.5368   -1.5499   -6.8784 H         1 UNK         0.0624 
    137 H137       32.9417   -3.1893   -6.4395 H         1 UNK         0.0624 
@<TRIPOS>BOND
     1    1    2 1    
     2    1   72 1    
     3    1   73 1    
     4    1   74 1    
     5    2    3 2    
     6    2    4 am   BACKBONE|DICT|INTERRES
     7    4    5 1    
     8    4   75 1    
     9    5    6 1    
    10    5   35 1    
    11    5   76 1    
    12    6    7 1    
    13    6   77 1    
    14    6   78 1    
    15    7    8 1    
    16    8    9 1    
    17    8   79 1    
    18    8   80 1    
    19    9   10 ar   
    20    9   14 ar   
    21   10   11 ar   
    22   10   81 1    
    23   11   12 ar   
    24   11   71 1    
    25   12   13 ar   
    26   12   82 1    
    27   13   14 ar   
    28   13   15 1    
    29   14   83 1    
    30   15   16 1    
    31   15   84 1    
    32   15   85 1    
    33   16   17 1    
    34   17   18 1    
    35   17   86 1    
    36   17   87 1    
    37   18   19 1    
    38   18   37 1    
    39   18   88 1    
    40   19   20 am   BACKBONE|DICT|INTERRES
    41   19   89 1    
    42   20   21 2    
    43   20   22 1    
    44   22   23 1    
    45   22   24 1    
    46   22   90 1    
    47   23   91 1    
    48   23   92 1    
    49   23   93 1    
    50   24   25 am   BACKBONE|DICT|INTERRES
    51   24   94 1    
    52   25   26 2    
    53   25   27 1    
    54   27   28 1    
    55   27   29 1    
    56   27   95 1    
    57   28   96 1    
    58   28   97 1    
    59   28   98 1    
    60   29   30 am   BACKBONE|DICT|INTERRES
    61   29   99 1    
    62   30   31 2    
    63   30   32 1    
    64   32   33 1    
    65   32   34 1    
    66   32  100 1    
    67   33  101 1    
    68   33  102 1    
    69   33  103 1    
    70   34   35 am   BACKBONE|DICT|INTERRES
    71   34  104 1    
    72   35   36 2    
    73   37   38 2    
    74   37   39 am   BACKBONE|DICT|INTERRES
    75   39   40 1    
    76   39  105 1    
    77   40   41 1    
    78   40   42 1    
    79   40  106 1    
    80   41  107 1    
    81   41  108 1    
    82   41  109 1    
    83   42   43 2    
    84   42   44 am   BACKBONE|DICT|INTERRES
    85   44   45 1    
    86   44  110 1    
    87   45   46 1    
    88   45   47 1    
    89   45  111 1    
    90   46  112 1    
    91   46  113 1    
    92   46  114 1    
    93   47   48 2    
    94   47   49 am   BACKBONE|DICT|INTERRES
    95   49   50 1    
    96   49  115 1    
    97   50   51 1    
    98   50   52 1    
    99   50  116 1    
   100   51  117 1    
   101   51  118 1    
   102   51  119 1    
   103   52   53 2    
   104   52   54 am   BACKBONE|DICT|INTERRES
   105   54   55 1    
   106   54  120 1    
   107   55   56 1    
   108   55   57 1    
   109   55  121 1    
   110   56  122 1    
   111   56  123 1    
   112   56  124 1    
   113   57   58 2    
   114   57   59 am   BACKBONE|DICT|INTERRES
   115   59   60 1    
   116   59  125 1    
   117   60   61 1    
   118   60   62 1    
   119   60  126 1    
   120   61  127 1    
   121   61  128 1    
   122   61  129 1    
   123   62   63 2    
   124   62   64 am   BACKBONE|DICT|INTERRES
   125   64   65 1    
   126   64  130 1    
   127   65   66 1    
   128   65   69 1    
   129   65  131 1    
   130   66   67 am   BACKBONE|DICT|INTERRES
   131   66   68 2    
   132   67  132 1    
   133   67  133 1    
   134   69   70 1    
   135   69  134 1    
   136   69  135 1    
   137   70   71 1    
   138   71  136 1    
   139   71  137 1    
@<TRIPOS>SUBSTRUCTURE
     1 UNK         1 GROUP             0       ****    0 ROOT    
