@<TRIPOS>MOLECULE
3R137
137   139    1
SMALL
USER_CHARGES


@<TRIPOS>ATOM
      1 CA         26.2805   -6.4353   -5.1987 C.3       0 UNK        -0.2020 
      2 C          26.3376   -5.6995   -3.8689 C.2       0 UNK         0.4855 
      3 O          25.3101   -5.5578   -3.2045 O.2       0 UNK        -0.5197 
      4 N          27.5279   -5.2234   -3.4764 N.am      1 UNK        -0.4892 
      5 CA         27.7516   -4.4174   -2.2703 C.3       1 UNK         0.0835 
      6 C6         29.2630   -4.1797   -2.0246 C.3       12 UNK        -0.0855 
      7 S7         29.6101   -3.5907   -0.3302 S.3       12 UNK        -0.2931 
      8 C8         31.3390   -3.0113   -0.4668 C.3       12 UNK         0.0378 
      9 C9         31.5400   -1.9230   -1.5181 C.ar      12 UNK        -0.0802 
     10 C10        32.5853   -2.0278   -2.4406 C.ar      12 UNK        -0.0944 
     11 C11        32.7606   -1.0577   -3.4322 C.ar      12 UNK        -0.0787 
     12 C12        31.8785    0.0251   -3.5001 C.ar      12 UNK        -0.0862 
     13 C13        30.8168    0.1358   -2.5968 C.ar      12 UNK        -0.0733 
     14 C14        30.6787   -0.8235   -1.5864 C.ar      12 UNK        -0.0832 
     15 C15        29.7976    1.2627   -2.7428 C.3       12 UNK         0.0240 
     16 S16        28.0994    0.6055   -2.7187 S.3       12 UNK        -0.2522 
     17 C17        27.1136    1.8910   -3.5453 C.3       12 UNK        -0.0967 
     18 CA         26.9087    1.6084   -5.0550 C.3       5 UNK         0.0660 
     19 N          26.4759    0.2299   -5.3384 N.am      5 UNK        -0.4015 
     20 C          26.3580   -0.3158   -6.5599 C.2       4 UNK         0.4946 
     21 O          26.5630    0.3048   -7.6040 O.2       4 UNK        -0.5353 
     22 CA         25.9083   -1.7820   -6.6440 C.3       4 UNK         0.0277 
     23 CB         27.1212   -2.7219   -6.7367 C.3       4 UNK        -0.1981 
     24 N          25.0719   -2.1689   -5.5069 N.am      4 UNK        -0.4209 
     25 C          23.7615   -1.8985   -5.4113 C.2       3 UNK         0.4942 
     26 O          23.1231   -1.3103   -6.2844 O.2       3 UNK        -0.5208 
     27 CA         23.0334   -2.3476   -4.1314 C.3       3 UNK         0.0250 
     28 CB         22.3883   -3.7273   -4.3381 C.3       3 UNK        -0.1990 
     29 N          23.9038   -2.3898   -2.9546 N.am      3 UNK        -0.4232 
     30 C          24.4044   -1.3040   -2.3468 C.2       2 UNK         0.4993 
     31 O          24.1394   -0.1500   -2.6846 O.2       2 UNK        -0.5286 
     32 CA         25.3942   -1.5394   -1.1900 C.3       2 UNK         0.0209 
     33 CB         24.6483   -1.5625    0.1537 C.3       2 UNK        -0.1931 
     34 N          26.2132   -2.7539   -1.3087 N.am      2 UNK        -0.4546 
     35 C          26.9689   -3.0908   -2.3647 C.2       1 UNK         0.5154 
     36 O          27.0313   -2.4297   -3.4032 O.2       1 UNK        -0.5181 
     37 C          25.9876    2.6797   -5.6756 C.2       5 UNK         0.5014 
     38 O          26.4550    3.7867   -5.9430 O.2       5 UNK        -0.5248 
     39 N          24.7237    2.3265   -5.9566 N.am      6 UNK        -0.4434 
     40 CA         23.7710    3.1341   -6.7260 C.3       6 UNK         0.0363 
     41 CB         22.4018    2.4361   -6.7164 C.3       6 UNK        -0.1936 
     42 C          24.2225    3.4129   -8.1753 C.2       6 UNK         0.5081 
     43 O          23.8157    4.4249   -8.7459 O.2       6 UNK        -0.5248 
     44 N          25.0708    2.5361   -8.7298 N.am      7 UNK        -0.4718 
     45 CA         25.7384    2.6870  -10.0243 C.3       7 UNK         0.0273 
     46 CB         25.4598    1.4279  -10.8658 C.3       7 UNK        -0.1935 
     47 C          27.2517    2.9258   -9.8419 C.2       7 UNK         0.5018 
     48 O          28.0191    2.6689  -10.7697 O.2       7 UNK        -0.5186 
     49 N          27.6587    3.3803   -8.6446 N.am      8 UNK        -0.4240 
     50 CA         29.0272    3.6377   -8.1717 C.3       8 UNK         0.0235 
     51 CB         29.7411    4.6826   -9.0551 C.3       8 UNK        -0.2000 
     52 C          29.8947    2.3804   -7.9596 C.2       8 UNK         0.4941 
     53 O          31.0575    2.5264   -7.5800 O.2       8 UNK        -0.5273 
     54 N          29.3381    1.1807   -8.1857 N.am      9 UNK        -0.4262 
     55 CA         29.9069   -0.1697   -8.0456 C.3       9 UNK         0.0264 
     56 CB         30.2084   -0.4853   -6.5707 C.3       9 UNK        -0.1955 
     57 C          31.1334   -0.4940   -8.9216 C.2       9 UNK         0.5031 
     58 O          31.2265   -1.6169   -9.4207 O.2       9 UNK        -0.5390 
     59 N          32.0562    0.4642   -9.0733 N.am      10 UNK        -0.4204 
     60 CA         33.3507    0.4258   -9.7657 C.3       10 UNK         0.0237 
     61 CB         33.1934    0.1060  -11.2656 C.3       10 UNK        -0.1985 
     62 C          34.3831   -0.4954   -9.0928 C.2       10 UNK         0.4970 
     63 O          35.4864   -0.0374   -8.7943 O.2       10 UNK        -0.4914 
     64 N          34.0047   -1.7581   -8.8603 N.am      11 UNK        -0.4285 
     65 CA         34.7885   -2.8061   -8.1823 C.3       11 UNK         0.1007 
     66 C          36.1007   -3.2250   -8.9156 C.2       11 UNK         0.5703 
     67 N          36.2459   -2.9594  -10.2087 N.am      11 UNK        -0.7361 
     68 O          36.9886   -3.8310   -8.3194 O.2       11 UNK        -0.4986 
     69 C69        35.0018   -2.5092   -6.6689 C.3       12 UNK        -0.0947 
     70 S70        33.4238   -2.3546   -5.7678 S.3       12 UNK        -0.2240 
     71 C71        33.8885   -1.2006   -4.4429 C.3       12 UNK         0.0194 
     72 H72        25.5600   -5.9553   -5.8606 H         1 UNK         0.0906 
     73 H73        27.2473   -6.4468   -5.7015 H         1 UNK         0.0906 
     74 H74        25.9654   -7.4666   -5.0429 H         1 UNK         0.0906 
     75 H75        28.3315   -5.3465   -4.0754 H         1 UNK         0.3140 
     76 H76        27.3556   -4.9960   -1.4326 H         1 UNK         0.1085 
     77 H77        29.8161   -5.1102   -2.1620 H         1 UNK         0.0836 
     78 H78        29.6645   -3.4777   -2.7586 H         1 UNK         0.0836 
     79 H79        31.9743   -3.8730   -0.6784 H         1 UNK         0.0731 
     80 H80        31.6574   -2.6244    0.5019 H         1 UNK         0.0731 
     81 H81        33.2577   -2.8741   -2.4010 H         1 UNK         0.1312 
     82 H82        32.0068    0.7707   -4.2722 H         1 UNK         0.1406 
     83 H83        29.8626   -0.7426   -0.8812 H         1 UNK         0.1631 
     84 H84        29.9559    1.8011   -3.6787 H         1 UNK         0.0717 
     85 H85        29.9239    1.9823   -1.9332 H         1 UNK         0.0717 
     86 H86        26.1501    1.9387   -3.0333 H         1 UNK         0.0934 
     87 H87        27.5884    2.8623   -3.3918 H         1 UNK         0.0934 
     88 H88        27.8797    1.7242   -5.5402 H         1 UNK         0.0739 
     89 H89        26.3403   -0.3642   -4.5302 H         1 UNK         0.3093 
     90 H90        25.3260   -1.8965   -7.5611 H         1 UNK         0.0818 
     91 H91        27.6820   -2.5406   -7.6533 H         1 UNK         0.0819 
     92 H92        27.8098   -2.5869   -5.9019 H         1 UNK         0.0819 
     93 H93        26.8138   -3.7671   -6.7527 H         1 UNK         0.0819 
     94 H94        25.5558   -2.5767   -4.7125 H         1 UNK         0.3041 
     95 H95        22.2372   -1.6256   -3.9369 H         1 UNK         0.0784 
     96 H96        21.7009   -3.7131   -5.1852 H         1 UNK         0.0793 
     97 H97        23.1346   -4.4971   -4.5376 H         1 UNK         0.0793 
     98 H98        21.8155   -4.0336   -3.4626 H         1 UNK         0.0793 
     99 H99        24.1937   -3.3035   -2.6309 H         1 UNK         0.3024 
    100 H100       26.0773   -0.6895   -1.1789 H         1 UNK         0.1171 
    101 H101       25.3424   -1.6075    0.9932 H         1 UNK         0.0786 
    102 H102       24.0474   -0.6608    0.2824 H         1 UNK         0.0786 
    103 H103       23.9741   -2.4168    0.2270 H         1 UNK         0.0786 
    104 H104       26.2199   -3.3636   -0.5036 H         1 UNK         0.2977 
    105 H105       24.4215    1.3977   -5.6976 H         1 UNK         0.3127 
    106 H106       23.6711    4.0986   -6.2236 H         1 UNK         0.0770 
    107 H107       22.4478    1.4514   -7.1843 H         1 UNK         0.0814 
    108 H108       21.6606    3.0222   -7.2617 H         1 UNK         0.0814 
    109 H109       22.0276    2.3076   -5.7006 H         1 UNK         0.0814 
    110 H110       25.3752    1.7333   -8.1843 H         1 UNK         0.2983 
    111 H111       25.3442    3.5527  -10.5606 H         1 UNK         0.0947 
    112 H112       25.8869    1.5180  -11.8655 H         1 UNK         0.0806 
    113 H113       24.3892    1.2627  -10.9877 H         1 UNK         0.0806 
    114 H114       25.8862    0.5354  -10.4058 H         1 UNK         0.0806 
    115 H115       26.9429    3.5498   -7.9456 H         1 UNK         0.3000 
    116 H116       28.9122    4.0794   -7.1808 H         1 UNK         0.0850 
    117 H117       30.6855    4.9935   -8.6065 H         1 UNK         0.0810 
    118 H118       29.1340    5.5791   -9.1797 H         1 UNK         0.0810 
    119 H119       29.9709    4.2906  -10.0462 H         1 UNK         0.0810 
    120 H120       28.3640    1.1810   -8.4658 H         1 UNK         0.3040 
    121 H121       29.1146   -0.8430   -8.3726 H         1 UNK         0.0766 
    122 H122       31.0325    0.1228   -6.2028 H         1 UNK         0.0812 
    123 H123       30.4954   -1.5300   -6.4449 H         1 UNK         0.0812 
    124 H124       29.3463   -0.3082   -5.9290 H         1 UNK         0.0812 
    125 H125       31.8667    1.3253   -8.5576 H         1 UNK         0.3205 
    126 H126       33.7449    1.4407   -9.6923 H         1 UNK         0.0754 
    127 H127       34.1527    0.1775  -11.7799 H         1 UNK         0.0769 
    128 H128       32.5140    0.8082  -11.7489 H         1 UNK         0.0769 
    129 H129       32.8096   -0.9002  -11.4359 H         1 UNK         0.0769 
    130 H130       33.0567   -2.0104   -9.1277 H         1 UNK         0.2981 
    131 H131       34.1663   -3.6996   -8.2409 H         1 UNK         0.0541 
    132 H132       35.5216   -2.4760  -10.7146 H         1 UNK         0.3459 
    133 H133       37.0907   -3.2428  -10.6794 H         1 UNK         0.3459 
    134 H134       35.5923   -1.6013   -6.5369 H         1 UNK         0.0612 
    135 H135       35.5635   -3.3126   -6.1895 H         1 UNK         0.0612 
    136 H136       34.7878   -1.5637   -3.9430 H         1 UNK         0.0624 
    137 H137       34.1408   -0.2328   -4.8792 H         1 UNK         0.0624 
@<TRIPOS>BOND
     1    1    2 1    
     2    1   72 1    
     3    1   73 1    
     4    1   74 1    
     5    2    3 2    
     6    2    4 am   BACKBONE|DICT|INTERRES
     7    4    5 1    
     8    4   75 1    
     9    5    6 1    
    10    5   35 1    
    11    5   76 1    
    12    6    7 1    
    13    6   77 1    
    14    6   78 1    
    15    7    8 1    
    16    8    9 1    
    17    8   79 1    
    18    8   80 1    
    19    9   10 ar   
    20    9   14 ar   
    21   10   11 ar   
    22   10   81 1    
    23   11   12 ar   
    24   11   71 1    
    25   12   13 ar   
    26   12   82 1    
    27   13   14 ar   
    28   13   15 1    
    29   14   83 1    
    30   15   16 1    
    31   15   84 1    
    32   15   85 1    
    33   16   17 1    
    34   17   18 1    
    35   17   86 1    
    36   17   87 1    
    37   18   19 1    
    38   18   37 1    
    39   18   88 1    
    40   19   20 am   BACKBONE|DICT|INTERRES
    41   19   89 1    
    42   20   21 2    
    43   20   22 1    
    44   22   23 1    
    45   22   24 1    
    46   22   90 1    
    47   23   91 1    
    48   23   92 1    
    49   23   93 1    
    50   24   25 am   BACKBONE|DICT|INTERRES
    51   24   94 1    
    52   25   26 2    
    53   25   27 1    
    54   27   28 1    
    55   27   29 1    
    56   27   95 1    
    57   28   96 1    
    58   28   97 1    
    59   28   98 1    
    60   29   30 am   BACKBONE|DICT|INTERRES
    61   29   99 1    
    62   30   31 2    
    63   30   32 1    
    64   32   33 1    
    65   32   34 1    
    66   32  100 1    
    67   33  101 1    
    68   33  102 1    
    69   33  103 1    
    70   34   35 am   BACKBONE|DICT|INTERRES
    71   34  104 1    
    72   35   36 2    
    73   37   38 2    
    74   37   39 am   BACKBONE|DICT|INTERRES
    75   39   40 1    
    76   39  105 1    
    77   40   41 1    
    78   40   42 1    
    79   40  106 1    
    80   41  107 1    
    81   41  108 1    
    82   41  109 1    
    83   42   43 2    
    84   42   44 am   BACKBONE|DICT|INTERRES
    85   44   45 1    
    86   44  110 1    
    87   45   46 1    
    88   45   47 1    
    89   45  111 1    
    90   46  112 1    
    91   46  113 1    
    92   46  114 1    
    93   47   48 2    
    94   47   49 am   BACKBONE|DICT|INTERRES
    95   49   50 1    
    96   49  115 1    
    97   50   51 1    
    98   50   52 1    
    99   50  116 1    
   100   51  117 1    
   101   51  118 1    
   102   51  119 1    
   103   52   53 2    
   104   52   54 am   BACKBONE|DICT|INTERRES
   105   54   55 1    
   106   54  120 1    
   107   55   56 1    
   108   55   57 1    
   109   55  121 1    
   110   56  122 1    
   111   56  123 1    
   112   56  124 1    
   113   57   58 2    
   114   57   59 am   BACKBONE|DICT|INTERRES
   115   59   60 1    
   116   59  125 1    
   117   60   61 1    
   118   60   62 1    
   119   60  126 1    
   120   61  127 1    
   121   61  128 1    
   122   61  129 1    
   123   62   63 2    
   124   62   64 am   BACKBONE|DICT|INTERRES
   125   64   65 1    
   126   64  130 1    
   127   65   66 1    
   128   65   69 1    
   129   65  131 1    
   130   66   67 am   BACKBONE|DICT|INTERRES
   131   66   68 2    
   132   67  132 1    
   133   67  133 1    
   134   69   70 1    
   135   69  134 1    
   136   69  135 1    
   137   70   71 1    
   138   71  136 1    
   139   71  137 1    
@<TRIPOS>SUBSTRUCTURE
     1 UNK         1 GROUP             0       ****    0 ROOT    
