@<TRIPOS>MOLECULE
3R137
137   139    1
SMALL
USER_CHARGES


@<TRIPOS>ATOM
      1 CA         25.1395   -4.1484   -9.1251 C.3       0 UNK        -0.2020 
      2 C          24.5717   -4.7273   -7.8386 C.2       0 UNK         0.4855 
      3 O          23.4692   -5.2764   -7.8466 O.2       0 UNK        -0.5197 
      4 N          25.3242   -4.6239   -6.7367 N.am      1 UNK        -0.4892 
      5 CA         24.9140   -5.0689   -5.4032 C.3       1 UNK         0.0835 
      6 C6         26.1421   -5.2875   -4.4785 C.3       12 UNK        -0.0855 
      7 S7         27.0744   -3.7648   -4.0789 S.3       12 UNK        -0.2931 
      8 C8         28.8008   -4.3136   -4.2834 C.3       12 UNK         0.0378 
      9 C9         29.7851   -3.2677   -3.7741 C.ar      12 UNK        -0.0802 
     10 C10        30.8105   -2.7799   -4.5934 C.ar      12 UNK        -0.0944 
     11 C11        31.7211   -1.8354   -4.1032 C.ar      12 UNK        -0.0787 
     12 C12        31.5896   -1.3658   -2.7921 C.ar      12 UNK        -0.0862 
     13 C13        30.5569   -1.8327   -1.9734 C.ar      12 UNK        -0.0733 
     14 C14        29.6759   -2.7980   -2.4625 C.ar      12 UNK        -0.0832 
     15 C15        30.3554   -1.2752   -0.5735 C.3       12 UNK         0.0240 
     16 S16        28.8900   -0.1928   -0.5077 S.3       12 UNK        -0.2522 
     17 C17        29.4569    1.2382   -1.4877 C.3       12 UNK        -0.0967 
     18 CA         29.0610    1.1666   -2.9890 C.3       5 UNK         0.0660 
     19 N          27.6046    1.0614   -3.1739 N.am      5 UNK        -0.4015 
     20 C          26.9375    0.6989   -4.2806 C.2       4 UNK         0.4946 
     21 O          27.4721    0.5020   -5.3757 O.2       4 UNK        -0.5353 
     22 CA         25.4169    0.5102   -4.1276 C.3       4 UNK         0.0277 
     23 CB         24.7081    0.2994   -5.4782 C.3       4 UNK        -0.1981 
     24 N          25.1229   -0.6238   -3.2484 N.am      4 UNK        -0.4209 
     25 C          25.1858   -0.5826   -1.9090 C.2       3 UNK         0.4942 
     26 O          25.4333    0.4521   -1.2851 O.2       3 UNK        -0.5208 
     27 CA         24.9798   -1.9055   -1.1421 C.3       3 UNK         0.0250 
     28 CB         24.5282   -1.6875    0.3179 C.3       3 UNK        -0.1990 
     29 N          24.1013   -2.8606   -1.8279 N.am      3 UNK        -0.4232 
     30 C          22.8095   -2.6992   -2.1584 C.2       2 UNK         0.4993 
     31 O          22.1426   -1.7060   -1.8634 O.2       2 UNK        -0.5286 
     32 CA         22.1616   -3.8478   -2.9648 C.3       2 UNK         0.0209 
     33 CB         20.9594   -3.3737   -3.8107 C.3       2 UNK        -0.1931 
     34 N          23.1199   -4.5971   -3.7967 N.am      2 UNK        -0.4546 
     35 C          23.8897   -4.0970   -4.7767 C.2       1 UNK         0.5154 
     36 O          23.8665   -2.9144   -5.1281 O.2       1 UNK        -0.5181 
     37 C          29.7383    2.2895   -3.8122 C.2       5 UNK         0.5014 
     38 O          30.5254    3.0707   -3.2738 O.2       5 UNK        -0.5248 
     39 N          29.4356    2.3289   -5.1081 N.am      6 UNK        -0.4434 
     40 CA         30.0549    3.1316   -6.1483 C.3       6 UNK         0.0363 
     41 CB         29.7467    4.6342   -5.9879 C.3       6 UNK        -0.1936 
     42 C          29.5641    2.5779   -7.4850 C.2       6 UNK         0.5081 
     43 O          30.3475    1.9921   -8.2314 O.2       6 UNK        -0.5248 
     44 N          28.2573    2.7304   -7.7368 N.am      7 UNK        -0.4718 
     45 CA         27.5817    2.3610   -8.9835 C.3       7 UNK         0.0273 
     46 CB         26.1301    2.8641   -8.9343 C.3       7 UNK        -0.1935 
     47 C          27.6173    0.8619   -9.3276 C.2       7 UNK         0.5018 
     48 O          27.5148    0.5278  -10.5083 O.2       7 UNK        -0.5186 
     49 N          27.7650   -0.0096   -8.3183 N.am      8 UNK        -0.4240 
     50 CA         27.8190   -1.4641   -8.4837 C.3       8 UNK         0.0235 
     51 CB         27.8260   -2.1377   -7.1046 C.3       8 UNK        -0.2000 
     52 C          29.0063   -1.9780   -9.3156 C.2       8 UNK         0.4941 
     53 O          28.8594   -3.0061   -9.9781 O.2       8 UNK        -0.5273 
     54 N          30.1523   -1.2861   -9.2533 N.am      9 UNK        -0.4262 
     55 CA         31.3961   -1.7141   -9.9040 C.3       9 UNK         0.0264 
     56 CB         32.2174   -2.5541   -8.9061 C.3       9 UNK        -0.1955 
     57 C          32.2242   -0.5506  -10.4753 C.2       9 UNK         0.5031 
     58 O          33.3644   -0.7844  -10.8792 O.2       9 UNK        -0.5390 
     59 N          31.6709    0.6735  -10.4791 N.am      10 UNK        -0.4204 
     60 CA         32.3543    1.9473  -10.7564 C.3       10 UNK         0.0237 
     61 CB         32.7970    2.0415  -12.2326 C.3       10 UNK        -0.1985 
     62 C          33.4991    2.2096   -9.7541 C.2       10 UNK         0.4970 
     63 O          34.5696    2.6832  -10.1394 O.2       10 UNK        -0.4914 
     64 N          33.2448    1.8647   -8.4863 N.am      11 UNK        -0.4285 
     65 CA         34.1991    1.8980   -7.3705 C.3       11 UNK         0.1007 
     66 C          34.1585    3.2061   -6.5283 C.2       11 UNK         0.5703 
     67 N          33.4130    4.2297   -6.9291 N.am      11 UNK        -0.7361 
     68 O          34.8389    3.3093   -5.5104 O.2       11 UNK        -0.4986 
     69 C69        34.1166    0.5994   -6.5196 C.3       12 UNK        -0.0947 
     70 S70        32.4768    0.2297   -5.8040 S.3       12 UNK        -0.2240 
     71 C71        32.8686   -1.3404   -4.9714 C.3       12 UNK         0.0194 
     72 H72        26.2285   -4.1148   -9.1032 H         1 UNK         0.0906 
     73 H73        24.8445   -4.7589   -9.9782 H         1 UNK         0.0906 
     74 H74        24.7616   -3.1386   -9.2820 H         1 UNK         0.0906 
     75 H75        26.1948   -4.1151   -6.7657 H         1 UNK         0.3140 
     76 H76        24.4134   -6.0332   -5.5200 H         1 UNK         0.1085 
     77 H77        26.8152   -6.0101   -4.9429 H         1 UNK         0.0836 
     78 H78        25.8320   -5.7487   -3.5392 H         1 UNK         0.0836 
     79 H79        28.9549   -5.2392   -3.7270 H         1 UNK         0.0731 
     80 H80        28.9834   -4.5433   -5.3341 H         1 UNK         0.0731 
     81 H81        30.9089   -3.1416   -5.6079 H         1 UNK         0.1312 
     82 H82        32.2812   -0.6233   -2.4178 H         1 UNK         0.1406 
     83 H83        28.8787   -3.1616   -1.8282 H         1 UNK         0.1631 
     84 H84        31.2366   -0.7279   -0.2353 H         1 UNK         0.0717 
     85 H85        30.2185   -2.0997    0.1277 H         1 UNK         0.0717 
     86 H86        30.5401    1.3163   -1.3750 H         1 UNK         0.0934 
     87 H87        29.0460    2.1423   -1.0345 H         1 UNK         0.0934 
     88 H88        29.4718    0.2429   -3.3961 H         1 UNK         0.0739 
     89 H89        27.0544    1.1494   -2.3256 H         1 UNK         0.3093 
     90 H90        25.0136    1.4228   -3.6836 H         1 UNK         0.0818 
     91 H91        23.6302    0.2026   -5.3486 H         1 UNK         0.0819 
     92 H92        24.8816    1.1433   -6.1458 H         1 UNK         0.0819 
     93 H93        25.0614   -0.5975   -5.9870 H         1 UNK         0.0819 
     94 H94        24.9158   -1.5041   -3.7062 H         1 UNK         0.3041 
     95 H95        25.9639   -2.3762   -1.1102 H         1 UNK         0.0784 
     96 H96        25.2631   -1.1008    0.8706 H         1 UNK         0.0793 
     97 H97        23.5792   -1.1533    0.3726 H         1 UNK         0.0793 
     98 H98        24.4120   -2.6351    0.8437 H         1 UNK         0.0793 
     99 H99        24.5503   -3.7122   -2.1339 H         1 UNK         0.3024 
    100 H100       21.7815   -4.5509   -2.2215 H         1 UNK         0.1171 
    101 H101       20.5118   -4.1999   -4.3630 H         1 UNK         0.0786 
    102 H102       21.2477   -2.6065   -4.5301 H         1 UNK         0.0786 
    103 H103       20.1784   -2.9484   -3.1791 H         1 UNK         0.0786 
    104 H104       23.2171   -5.5769   -3.5650 H         1 UNK         0.2977 
    105 H105       28.7651    1.6281   -5.4309 H         1 UNK         0.3127 
    106 H106       31.1331    2.9813   -6.0955 H         1 UNK         0.0770 
    107 H107       28.6779    4.8286   -5.8970 H         1 UNK         0.0814 
    108 H108       30.1137    5.2006   -6.8448 H         1 UNK         0.0814 
    109 H109       30.2332    5.0451   -5.1035 H         1 UNK         0.0814 
    110 H110       27.6900    3.1923   -7.0410 H         1 UNK         0.2983 
    111 H111       28.0948    2.8820   -9.7948 H         1 UNK         0.0947 
    112 H112       25.6045    2.6336   -9.8623 H         1 UNK         0.0806 
    113 H113       26.0876    3.9453   -8.8019 H         1 UNK         0.0806 
    114 H114       25.5707    2.4022   -8.1206 H         1 UNK         0.0806 
    115 H115       27.7907    0.3392   -7.3647 H         1 UNK         0.3000 
    116 H116       26.9088   -1.7609   -9.0071 H         1 UNK         0.0850 
    117 H117       27.9329   -3.2189   -7.1942 H         1 UNK         0.0810 
    118 H118       26.9010   -1.9435   -6.5633 H         1 UNK         0.0810 
    119 H119       28.6513   -1.7819   -6.4864 H         1 UNK         0.0810 
    120 H120       30.1934   -0.4669   -8.6604 H         1 UNK         0.3040 
    121 H121       31.1592   -2.3440  -10.7640 H         1 UNK         0.0766 
    122 H122       33.1217   -2.9499   -9.3700 H         1 UNK         0.0812 
    123 H123       32.5248   -1.9586   -8.0471 H         1 UNK         0.0812 
    124 H124       31.6470   -3.4068   -8.5376 H         1 UNK         0.0812 
    125 H125       30.7335    0.7733  -10.1130 H         1 UNK         0.3205 
    126 H126       31.6171    2.7334  -10.5859 H         1 UNK         0.0754 
    127 H127       33.1785    3.0373  -12.4616 H         1 UNK         0.0769 
    128 H128       31.9637    1.8510  -12.9088 H         1 UNK         0.0769 
    129 H129       33.5893    1.3302  -12.4675 H         1 UNK         0.0769 
    130 H130       32.3009    1.5772   -8.2505 H         1 UNK         0.2981 
    131 H131       35.2030    1.9003   -7.7985 H         1 UNK         0.0541 
    132 H132       32.8817    4.1695   -7.7819 H         1 UNK         0.3459 
    133 H133       33.4083    5.0776   -6.3851 H         1 UNK         0.3459 
    134 H134       34.8517    0.6248   -5.7132 H         1 UNK         0.0612 
    135 H135       34.3996   -0.2489   -7.1449 H         1 UNK         0.0612 
    136 H136       33.1280   -2.0917   -5.7182 H         1 UNK         0.0624 
    137 H137       33.7578   -1.2058   -4.3535 H         1 UNK         0.0624 
@<TRIPOS>BOND
     1    1    2 1    
     2    1   72 1    
     3    1   73 1    
     4    1   74 1    
     5    2    3 2    
     6    2    4 am   BACKBONE|DICT|INTERRES
     7    4    5 1    
     8    4   75 1    
     9    5    6 1    
    10    5   35 1    
    11    5   76 1    
    12    6    7 1    
    13    6   77 1    
    14    6   78 1    
    15    7    8 1    
    16    8    9 1    
    17    8   79 1    
    18    8   80 1    
    19    9   10 ar   
    20    9   14 ar   
    21   10   11 ar   
    22   10   81 1    
    23   11   12 ar   
    24   11   71 1    
    25   12   13 ar   
    26   12   82 1    
    27   13   14 ar   
    28   13   15 1    
    29   14   83 1    
    30   15   16 1    
    31   15   84 1    
    32   15   85 1    
    33   16   17 1    
    34   17   18 1    
    35   17   86 1    
    36   17   87 1    
    37   18   19 1    
    38   18   37 1    
    39   18   88 1    
    40   19   20 am   BACKBONE|DICT|INTERRES
    41   19   89 1    
    42   20   21 2    
    43   20   22 1    
    44   22   23 1    
    45   22   24 1    
    46   22   90 1    
    47   23   91 1    
    48   23   92 1    
    49   23   93 1    
    50   24   25 am   BACKBONE|DICT|INTERRES
    51   24   94 1    
    52   25   26 2    
    53   25   27 1    
    54   27   28 1    
    55   27   29 1    
    56   27   95 1    
    57   28   96 1    
    58   28   97 1    
    59   28   98 1    
    60   29   30 am   BACKBONE|DICT|INTERRES
    61   29   99 1    
    62   30   31 2    
    63   30   32 1    
    64   32   33 1    
    65   32   34 1    
    66   32  100 1    
    67   33  101 1    
    68   33  102 1    
    69   33  103 1    
    70   34   35 am   BACKBONE|DICT|INTERRES
    71   34  104 1    
    72   35   36 2    
    73   37   38 2    
    74   37   39 am   BACKBONE|DICT|INTERRES
    75   39   40 1    
    76   39  105 1    
    77   40   41 1    
    78   40   42 1    
    79   40  106 1    
    80   41  107 1    
    81   41  108 1    
    82   41  109 1    
    83   42   43 2    
    84   42   44 am   BACKBONE|DICT|INTERRES
    85   44   45 1    
    86   44  110 1    
    87   45   46 1    
    88   45   47 1    
    89   45  111 1    
    90   46  112 1    
    91   46  113 1    
    92   46  114 1    
    93   47   48 2    
    94   47   49 am   BACKBONE|DICT|INTERRES
    95   49   50 1    
    96   49  115 1    
    97   50   51 1    
    98   50   52 1    
    99   50  116 1    
   100   51  117 1    
   101   51  118 1    
   102   51  119 1    
   103   52   53 2    
   104   52   54 am   BACKBONE|DICT|INTERRES
   105   54   55 1    
   106   54  120 1    
   107   55   56 1    
   108   55   57 1    
   109   55  121 1    
   110   56  122 1    
   111   56  123 1    
   112   56  124 1    
   113   57   58 2    
   114   57   59 am   BACKBONE|DICT|INTERRES
   115   59   60 1    
   116   59  125 1    
   117   60   61 1    
   118   60   62 1    
   119   60  126 1    
   120   61  127 1    
   121   61  128 1    
   122   61  129 1    
   123   62   63 2    
   124   62   64 am   BACKBONE|DICT|INTERRES
   125   64   65 1    
   126   64  130 1    
   127   65   66 1    
   128   65   69 1    
   129   65  131 1    
   130   66   67 am   BACKBONE|DICT|INTERRES
   131   66   68 2    
   132   67  132 1    
   133   67  133 1    
   134   69   70 1    
   135   69  134 1    
   136   69  135 1    
   137   70   71 1    
   138   71  136 1    
   139   71  137 1    
@<TRIPOS>SUBSTRUCTURE
     1 UNK         1 GROUP             0       ****    0 ROOT    
