@<TRIPOS>MOLECULE
3R137
137   139    1
SMALL
USER_CHARGES


@<TRIPOS>ATOM
      1 CA         29.1457   -5.8335    1.8825 C.3       0 UNK        -0.2020 
      2 C          28.9005   -5.1792    0.5308 C.2       0 UNK         0.4855 
      3 O          29.0270   -5.8443   -0.4976 O.2       0 UNK        -0.5197 
      4 N          28.5536   -3.8845    0.5329 N.am      1 UNK        -0.4892 
      5 CA         28.2500   -3.0528   -0.6404 C.3       1 UNK         0.0835 
      6 C6         29.4691   -2.8192   -1.5800 C.3       12 UNK        -0.0855 
      7 S7         30.8605   -2.0240   -0.7119 S.3       12 UNK        -0.2931 
      8 C8         32.0520   -1.8173   -2.0812 C.3       12 UNK         0.0378 
      9 C9         31.8102   -0.6333   -3.0229 C.ar      12 UNK        -0.0802 
     10 C10        32.6612   -0.4929   -4.1234 C.ar      12 UNK        -0.0944 
     11 C11        32.5415    0.5921   -5.0029 C.ar      12 UNK        -0.0787 
     12 C12        31.5199    1.5196   -4.7872 C.ar      12 UNK        -0.0862 
     13 C13        30.6457    1.3958   -3.7036 C.ar      12 UNK        -0.0733 
     14 C14        30.8088    0.3256   -2.8158 C.ar      12 UNK        -0.0832 
     15 C15        29.5881    2.4771   -3.4886 C.3       12 UNK         0.0240 
     16 S16        28.0616    1.9393   -2.6379 S.3       12 UNK        -0.2522 
     17 C17        27.3282    0.6718   -3.7348 C.3       12 UNK        -0.0967 
     18 CA         27.2037    0.9886   -5.2491 C.3       5 UNK         0.0660 
     19 N          26.6297   -0.1573   -5.9653 N.am      5 UNK        -0.4015 
     20 C          26.4831   -0.2609   -7.2963 C.2       4 UNK         0.4946 
     21 O          26.9390    0.5667   -8.0856 O.2       4 UNK        -0.5353 
     22 CA         25.6636   -1.4434   -7.8538 C.3       4 UNK         0.0277 
     23 CB         26.5953   -2.5223   -8.4265 C.3       4 UNK        -0.1981 
     24 N          24.7642   -2.0777   -6.8873 N.am      4 UNK        -0.4209 
     25 C          23.8018   -1.4761   -6.1730 C.2       3 UNK         0.4942 
     26 O          23.4806   -0.2960   -6.3127 O.2       3 UNK        -0.5208 
     27 CA         23.1563   -2.3113   -5.0493 C.3       3 UNK         0.0250 
     28 CB         21.8450   -2.9450   -5.5398 C.3       3 UNK        -0.1990 
     29 N          24.0264   -3.3587   -4.4864 N.am      3 UNK        -0.4232 
     30 C          25.2557   -3.1613   -3.9853 C.2       2 UNK         0.4993 
     31 O          25.8214   -2.0653   -3.9808 O.2       2 UNK        -0.5286 
     32 CA         26.0108   -4.4041   -3.4878 C.3       2 UNK         0.0209 
     33 CB         26.5772   -5.1940   -4.6806 C.3       2 UNK        -0.1931 
     34 N          27.1213   -4.0278   -2.6114 N.am      2 UNK        -0.4546 
     35 C          26.9853   -3.5753   -1.3577 C.2       1 UNK         0.5154 
     36 O          25.9079   -3.5542   -0.7572 O.2       1 UNK        -0.5181 
     37 C          26.4338    2.3016   -5.5337 C.2       5 UNK         0.5014 
     38 O          27.0591    3.3612   -5.5623 O.2       5 UNK        -0.5248 
     39 N          25.1281    2.2240   -5.8450 N.am      6 UNK        -0.4434 
     40 CA         24.3192    3.3666   -6.2920 C.3       6 UNK         0.0363 
     41 CB         22.8465    2.9416   -6.3986 C.3       6 UNK        -0.1936 
     42 C          24.7946    3.9889   -7.6223 C.2       6 UNK         0.5081 
     43 O          24.5426    5.1714   -7.8540 O.2       6 UNK        -0.5248 
     44 N          25.4862    3.1986   -8.4548 N.am      7 UNK        -0.4718 
     45 CA         26.1373    3.6304   -9.6943 C.3       7 UNK         0.0273 
     46 CB         25.7380    2.6495  -10.8116 C.3       7 UNK        -0.1935 
     47 C          27.6717    3.6888   -9.5489 C.2       7 UNK         0.5018 
     48 O          28.3540    3.9303  -10.5453 O.2       7 UNK        -0.5186 
     49 N          28.1886    3.4316   -8.3350 N.am      8 UNK        -0.4240 
     50 CA         29.6010    3.2470   -7.9734 C.3       8 UNK         0.0235 
     51 CB         30.3767    4.5753   -8.0897 C.3       8 UNK        -0.2000 
     52 C          30.2871    2.0850   -8.7256 C.2       8 UNK         0.4941 
     53 O          31.5013    2.1203   -8.9285 O.2       8 UNK        -0.5273 
     54 N          29.5032    1.0738   -9.1222 N.am      9 UNK        -0.4262 
     55 CA         29.9276   -0.0449   -9.9657 C.3       9 UNK         0.0264 
     56 CB         28.8567   -0.2706  -11.0474 C.3       9 UNK        -0.1955 
     57 C          30.2006   -1.3345   -9.1727 C.2       9 UNK         0.5031 
     58 O          30.6501   -2.3140   -9.7691 O.2       9 UNK        -0.5390 
     59 N          29.9621   -1.3272   -7.8509 N.am      10 UNK        -0.4204 
     60 CA         30.1776   -2.4652   -6.9415 C.3       10 UNK         0.0237 
     61 CB         29.5936   -2.1382   -5.5563 C.3       10 UNK        -0.1985 
     62 C          31.6413   -2.9421   -6.8310 C.2       10 UNK         0.4970 
     63 O          31.8757   -4.0608   -6.3732 O.2       10 UNK        -0.4914 
     64 N          32.5871   -2.1083   -7.2784 N.am      11 UNK        -0.4285 
     65 CA         33.9986   -2.4528   -7.4932 C.3       11 UNK         0.1007 
     66 C          34.2343   -3.4475   -8.6700 C.2       11 UNK         0.5703 
     67 N          33.2832   -3.6643   -9.5731 N.am      11 UNK        -0.7361 
     68 O          35.3066   -4.0406   -8.7602 O.2       11 UNK        -0.4986 
     69 C69        34.8597   -1.1751   -7.6812 C.3       12 UNK        -0.0947 
     70 S70        35.0207   -0.1785   -6.1631 S.3       12 UNK        -0.2240 
     71 C71        33.4929    0.8256   -6.1814 C.3       12 UNK         0.0194 
     72 H72        28.4616   -6.6699    2.0240 H         1 UNK         0.0906 
     73 H73        30.1653   -6.2146    1.9345 H         1 UNK         0.0906 
     74 H74        29.0029   -5.1354    2.7072 H         1 UNK         0.0906 
     75 H75        28.4508   -3.4117    1.4202 H         1 UNK         0.3140 
     76 H76        27.9635   -2.0756   -0.2471 H         1 UNK         0.1085 
     77 H77        29.1871   -2.1765   -2.4161 H         1 UNK         0.0836 
     78 H78        29.8243   -3.7579   -2.0087 H         1 UNK         0.0836 
     79 H79        32.0843   -2.7401   -2.6628 H         1 UNK         0.0731 
     80 H80        33.0432   -1.6998   -1.6410 H         1 UNK         0.0731 
     81 H81        33.4333   -1.2337   -4.2729 H         1 UNK         0.1312 
     82 H82        31.4259    2.3643   -5.4557 H         1 UNK         0.1406 
     83 H83        30.1577    0.2533   -1.9576 H         1 UNK         0.1631 
     84 H84        29.3237    2.9403   -4.4380 H         1 UNK         0.0717 
     85 H85        30.0398    3.2689   -2.8899 H         1 UNK         0.0717 
     86 H86        27.9122   -0.2407   -3.6056 H         1 UNK         0.0934 
     87 H87        26.3413    0.4431   -3.3287 H         1 UNK         0.0934 
     88 H88        28.2113    1.1217   -5.6460 H         1 UNK         0.0739 
     89 H89        26.2414   -0.8884   -5.3716 H         1 UNK         0.3093 
     90 H90        25.0486   -1.0485   -8.6648 H         1 UNK         0.0818 
     91 H91        26.0302   -3.3078   -8.9286 H         1 UNK         0.0819 
     92 H92        27.2806   -2.1063   -9.1627 H         1 UNK         0.0819 
     93 H93        27.1979   -2.9899   -7.6477 H         1 UNK         0.0819 
     94 H94        24.9405   -3.0515   -6.6902 H         1 UNK         0.3041 
     95 H95        22.9197   -1.6206   -4.2373 H         1 UNK         0.0784 
     96 H96        21.1714   -2.1866   -5.9421 H         1 UNK         0.0793 
     97 H97        22.0199   -3.6771   -6.3293 H         1 UNK         0.0793 
     98 H98        21.3163   -3.4448   -4.7278 H         1 UNK         0.0793 
     99 H99        23.6433   -4.2935   -4.4704 H         1 UNK         0.3024 
    100 H100       25.3182   -5.0367   -2.9275 H         1 UNK         0.1171 
    101 H101       27.1198   -6.0788   -4.3466 H         1 UNK         0.0786 
    102 H102       25.7812   -5.5388   -5.3418 H         1 UNK         0.0786 
    103 H103       27.2604   -4.5897   -5.2795 H         1 UNK         0.0786 
    104 H104       28.0394   -4.0221   -3.0279 H         1 UNK         0.2977 
    105 H105       24.6686    1.3178   -5.8537 H         1 UNK         0.3127 
    106 H106       24.3954    4.1416   -5.5264 H         1 UNK         0.0770 
    107 H107       22.7023    2.1789   -7.1649 H         1 UNK         0.0814 
    108 H108       22.2137    3.7904   -6.6616 H         1 UNK         0.0814 
    109 H109       22.4771    2.5422   -5.4540 H         1 UNK         0.0814 
    110 H110       25.6656    2.2387   -8.1813 H         1 UNK         0.2983 
    111 H111       25.8025    4.6308   -9.9763 H         1 UNK         0.0947 
    112 H112       26.1614    2.9504  -11.7708 H         1 UNK         0.0806 
    113 H113       24.6558    2.6105  -10.9361 H         1 UNK         0.0806 
    114 H114       26.0884    1.6377  -10.6032 H         1 UNK         0.0806 
    115 H115       27.5352    3.3088   -7.5696 H         1 UNK         0.3000 
    116 H116       29.6001    2.9606   -6.9220 H         1 UNK         0.0850 
    117 H117       31.3862    4.4771   -7.6887 H         1 UNK         0.0810 
    118 H118       29.8843    5.3714   -7.5314 H         1 UNK         0.0810 
    119 H119       30.4693    4.8993   -9.1267 H         1 UNK         0.0810 
    120 H120       28.5162    1.0901   -8.8674 H         1 UNK         0.3040 
    121 H121       30.8603    0.2082  -10.4741 H         1 UNK         0.0766 
    122 H122       28.7791    0.5962  -11.7041 H         1 UNK         0.0812 
    123 H123       27.8707   -0.4431  -10.6174 H         1 UNK         0.0812 
    124 H124       29.0990   -1.1292  -11.6752 H         1 UNK         0.0812 
    125 H125       29.6070   -0.4756   -7.4435 H         1 UNK         0.3205 
    126 H126       29.6210   -3.3130   -7.3456 H         1 UNK         0.0754 
    127 H127       28.5055   -2.1122   -5.5815 H         1 UNK         0.0769 
    128 H128       29.8729   -2.8923   -4.8193 H         1 UNK         0.0769 
    129 H129       29.9454   -1.1759   -5.1871 H         1 UNK         0.0769 
    130 H130       32.2949   -1.2133   -7.6355 H         1 UNK         0.2981 
    131 H131       34.3486   -2.9653   -6.5951 H         1 UNK         0.0541 
    132 H132       32.3903   -3.1829   -9.5301 H         1 UNK         0.3459 
    133 H133       33.4607   -4.3148  -10.3214 H         1 UNK         0.3459 
    134 H134       34.4705   -0.5546   -8.4905 H         1 UNK         0.0612 
    135 H135       35.8770   -1.4415   -7.9747 H         1 UNK         0.0612 
    136 H136       32.9483    0.6675   -7.1117 H         1 UNK         0.0624 
    137 H137       33.7949    1.8739   -6.1865 H         1 UNK         0.0624 
@<TRIPOS>BOND
     1    1    2 1    
     2    1   72 1    
     3    1   73 1    
     4    1   74 1    
     5    2    3 2    
     6    2    4 am   BACKBONE|DICT|INTERRES
     7    4    5 1    
     8    4   75 1    
     9    5    6 1    
    10    5   35 1    
    11    5   76 1    
    12    6    7 1    
    13    6   77 1    
    14    6   78 1    
    15    7    8 1    
    16    8    9 1    
    17    8   79 1    
    18    8   80 1    
    19    9   10 ar   
    20    9   14 ar   
    21   10   11 ar   
    22   10   81 1    
    23   11   12 ar   
    24   11   71 1    
    25   12   13 ar   
    26   12   82 1    
    27   13   14 ar   
    28   13   15 1    
    29   14   83 1    
    30   15   16 1    
    31   15   84 1    
    32   15   85 1    
    33   16   17 1    
    34   17   18 1    
    35   17   86 1    
    36   17   87 1    
    37   18   19 1    
    38   18   37 1    
    39   18   88 1    
    40   19   20 am   BACKBONE|DICT|INTERRES
    41   19   89 1    
    42   20   21 2    
    43   20   22 1    
    44   22   23 1    
    45   22   24 1    
    46   22   90 1    
    47   23   91 1    
    48   23   92 1    
    49   23   93 1    
    50   24   25 am   BACKBONE|DICT|INTERRES
    51   24   94 1    
    52   25   26 2    
    53   25   27 1    
    54   27   28 1    
    55   27   29 1    
    56   27   95 1    
    57   28   96 1    
    58   28   97 1    
    59   28   98 1    
    60   29   30 am   BACKBONE|DICT|INTERRES
    61   29   99 1    
    62   30   31 2    
    63   30   32 1    
    64   32   33 1    
    65   32   34 1    
    66   32  100 1    
    67   33  101 1    
    68   33  102 1    
    69   33  103 1    
    70   34   35 am   BACKBONE|DICT|INTERRES
    71   34  104 1    
    72   35   36 2    
    73   37   38 2    
    74   37   39 am   BACKBONE|DICT|INTERRES
    75   39   40 1    
    76   39  105 1    
    77   40   41 1    
    78   40   42 1    
    79   40  106 1    
    80   41  107 1    
    81   41  108 1    
    82   41  109 1    
    83   42   43 2    
    84   42   44 am   BACKBONE|DICT|INTERRES
    85   44   45 1    
    86   44  110 1    
    87   45   46 1    
    88   45   47 1    
    89   45  111 1    
    90   46  112 1    
    91   46  113 1    
    92   46  114 1    
    93   47   48 2    
    94   47   49 am   BACKBONE|DICT|INTERRES
    95   49   50 1    
    96   49  115 1    
    97   50   51 1    
    98   50   52 1    
    99   50  116 1    
   100   51  117 1    
   101   51  118 1    
   102   51  119 1    
   103   52   53 2    
   104   52   54 am   BACKBONE|DICT|INTERRES
   105   54   55 1    
   106   54  120 1    
   107   55   56 1    
   108   55   57 1    
   109   55  121 1    
   110   56  122 1    
   111   56  123 1    
   112   56  124 1    
   113   57   58 2    
   114   57   59 am   BACKBONE|DICT|INTERRES
   115   59   60 1    
   116   59  125 1    
   117   60   61 1    
   118   60   62 1    
   119   60  126 1    
   120   61  127 1    
   121   61  128 1    
   122   61  129 1    
   123   62   63 2    
   124   62   64 am   BACKBONE|DICT|INTERRES
   125   64   65 1    
   126   64  130 1    
   127   65   66 1    
   128   65   69 1    
   129   65  131 1    
   130   66   67 am   BACKBONE|DICT|INTERRES
   131   66   68 2    
   132   67  132 1    
   133   67  133 1    
   134   69   70 1    
   135   69  134 1    
   136   69  135 1    
   137   70   71 1    
   138   71  136 1    
   139   71  137 1    
@<TRIPOS>SUBSTRUCTURE
     1 UNK         1 GROUP             0       ****    0 ROOT    
