@<TRIPOS>MOLECULE
3R137
137   139    1
SMALL
USER_CHARGES


@<TRIPOS>ATOM
      1 CA         27.8170    1.5516   -0.7024 C.3       0 UNK        -0.2020 
      2 C          27.9439    0.1227   -1.2073 C.2       0 UNK         0.4855 
      3 O          27.9574   -0.1011   -2.4172 O.2       0 UNK        -0.5197 
      4 N          28.0320   -0.8526   -0.2936 N.am      1 UNK        -0.4892 
      5 CA         28.1619   -2.2805   -0.6052 C.3       1 UNK         0.0835 
      6 C6         28.9055   -3.0612    0.5106 C.3       12 UNK        -0.0855 
      7 S7         30.6424   -2.5327    0.7069 S.3       12 UNK        -0.2931 
      8 C8         31.5386   -3.8248   -0.2190 C.3       12 UNK         0.0378 
      9 C9         31.4392   -3.6079   -1.7225 C.ar      12 UNK        -0.0802 
     10 C10        32.3774   -2.8046   -2.3771 C.ar      12 UNK        -0.0944 
     11 C11        32.2798   -2.5811   -3.7526 C.ar      12 UNK        -0.0787 
     12 C12        31.2338   -3.1644   -4.4720 C.ar      12 UNK        -0.0862 
     13 C13        30.2639   -3.9417   -3.8264 C.ar      12 UNK        -0.0733 
     14 C14        30.4004   -4.1896   -2.4567 C.ar      12 UNK        -0.0832 
     15 C15        29.0540   -4.5220   -4.5630 C.3       12 UNK         0.0240 
     16 S16        28.5323   -3.6199   -6.0668 S.3       12 UNK        -0.2522 
     17 C17        28.2210   -1.9355   -5.4359 C.3       12 UNK        -0.0967 
     18 CA         27.5072   -1.0623   -6.4945 C.3       5 UNK         0.0660 
     19 N          26.1335   -1.5066   -6.7515 N.am      5 UNK        -0.4015 
     20 C          25.3608   -1.0721   -7.7564 C.2       4 UNK         0.4946 
     21 O          25.7185   -0.2366   -8.5852 O.2       4 UNK        -0.5353 
     22 CA         23.9344   -1.6390   -7.8281 C.3       4 UNK         0.0277 
     23 CB         23.9421   -3.0700   -8.3899 C.3       4 UNK        -0.1981 
     24 N          23.2667   -1.6180   -6.5255 N.am      4 UNK        -0.4209 
     25 C          22.8901   -0.4988   -5.8897 C.2       3 UNK         0.4942 
     26 O          22.9943    0.6313   -6.3676 O.2       3 UNK        -0.5208 
     27 CA         22.3419   -0.6673   -4.4600 C.3       3 UNK         0.0250 
     28 CB         20.8319   -0.9534   -4.4902 C.3       3 UNK        -0.1990 
     29 N          23.0257   -1.7037   -3.6721 N.am      3 UNK        -0.4232 
     30 C          24.3395   -1.7081   -3.4090 C.2       2 UNK         0.4993 
     31 O          25.1240   -0.8680   -3.8514 O.2       2 UNK        -0.5286 
     32 CA         24.8856   -2.8551   -2.5549 C.3       2 UNK         0.0209 
     33 CB         25.0357   -4.1397   -3.3912 C.3       2 UNK        -0.1931 
     34 N          26.1902   -2.4464   -2.0423 N.am      2 UNK        -0.4546 
     35 C          26.7863   -2.8984   -0.9371 C.2       1 UNK         0.5154 
     36 O          26.2870   -3.7473   -0.1957 O.2       1 UNK        -0.5181 
     37 C          27.5754    0.4324   -6.1281 C.2       5 UNK         0.5014 
     38 O          28.4736    1.1233   -6.6043 O.2       5 UNK        -0.5248 
     39 N          26.6077    0.9239   -5.3439 N.am      6 UNK        -0.4434 
     40 CA         26.4598    2.3363   -4.9884 C.3       6 UNK         0.0363 
     41 CB         25.3243    2.4837   -3.9636 C.3       6 UNK        -0.1936 
     42 C          26.2126    3.2480   -6.2049 C.2       6 UNK         0.5081 
     43 O          26.6736    4.3898   -6.2039 O.2       6 UNK        -0.5248 
     44 N          25.5019    2.7325   -7.2170 N.am      7 UNK        -0.4718 
     45 CA         25.2287    3.4299   -8.4724 C.3       7 UNK         0.0273 
     46 CB         23.9262    2.8866   -9.0836 C.3       7 UNK        -0.1935 
     47 C          26.3928    3.3089   -9.4693 C.2       7 UNK         0.5018 
     48 O          26.8110    4.3195  -10.0354 O.2       7 UNK        -0.5186 
     49 N          26.8767    2.0788   -9.6886 N.am      8 UNK        -0.4240 
     50 CA         27.8599    1.7460  -10.7243 C.3       8 UNK         0.0235 
     51 CB         27.6578    0.2777  -11.1383 C.3       8 UNK        -0.2000 
     52 C          29.3245    1.9735  -10.3147 C.2       8 UNK         0.4941 
     53 O          30.1996    1.8536  -11.1738 O.2       8 UNK        -0.5273 
     54 N          29.5911    2.2146   -9.0233 N.am      9 UNK        -0.4262 
     55 CA         30.8991    2.2733   -8.3497 C.3       9 UNK         0.0264 
     56 CB         31.8469    3.3178   -8.9721 C.3       9 UNK        -0.1955 
     57 C          31.5694    0.8930   -8.2227 C.2       9 UNK         0.5031 
     58 O          32.0305    0.5508   -7.1334 O.2       9 UNK        -0.5390 
     59 N          31.5742    0.1208   -9.3190 N.am      10 UNK        -0.4204 
     60 CA         31.9758   -1.2827   -9.4799 C.3       10 UNK         0.0237 
     61 CB         31.0701   -2.2119   -8.6478 C.3       10 UNK        -0.1985 
     62 C          33.4658   -1.5738   -9.2263 C.2       10 UNK         0.4970 
     63 O          34.1255   -2.1291  -10.1060 O.2       10 UNK        -0.4914 
     64 N          33.9633   -1.2153   -8.0403 N.am      11 UNK        -0.4285 
     65 CA         35.3645   -1.3645   -7.6287 C.3       11 UNK         0.1007 
     66 C          36.2913   -0.3394   -8.3370 C.2       11 UNK         0.5703 
     67 N          37.5480   -0.6965   -8.5650 N.am      11 UNK        -0.7361 
     68 O          35.8969    0.7838   -8.6473 O.2       11 UNK        -0.4986 
     69 C69        35.5184   -1.2810   -6.0880 C.3       12 UNK        -0.0947 
     70 S70        34.6238   -2.6156   -5.2214 S.3       12 UNK        -0.2240 
     71 C71        33.2721   -1.6719   -4.4588 C.3       12 UNK         0.0194 
     72 H72        26.8388    1.9552   -0.9608 H         1 UNK         0.0906 
     73 H73        28.5778    2.1802   -1.1645 H         1 UNK         0.0906 
     74 H74        27.9373    1.6140    0.3789 H         1 UNK         0.0906 
     75 H75        28.0050   -0.6209    0.6894 H         1 UNK         0.3140 
     76 H76        28.7558   -2.3647   -1.5157 H         1 UNK         0.1085 
     77 H77        28.8878   -4.1345    0.3131 H         1 UNK         0.0836 
     78 H78        28.3975   -2.9302    1.4678 H         1 UNK         0.0836 
     79 H79        32.5866   -3.8071    0.0845 H         1 UNK         0.0731 
     80 H80        31.1648   -4.8126    0.0548 H         1 UNK         0.0731 
     81 H81        33.1770   -2.3435   -1.8131 H         1 UNK         0.1312 
     82 H82        31.1661   -2.9843   -5.5341 H         1 UNK         0.1406 
     83 H83        29.6719   -4.8085   -1.9508 H         1 UNK         0.1631 
     84 H84        28.1986   -4.5658   -3.8869 H         1 UNK         0.0717 
     85 H85        29.2806   -5.5519   -4.8411 H         1 UNK         0.0717 
     86 H86        27.6383   -1.9890   -4.5154 H         1 UNK         0.0934 
     87 H87        29.1792   -1.4901   -5.1626 H         1 UNK         0.0934 
     88 H88        28.0545   -1.1652   -7.4346 H         1 UNK         0.0739 
     89 H89        25.7490   -2.1649   -6.0925 H         1 UNK         0.3093 
     90 H90        23.3623   -1.0086   -8.5127 H         1 UNK         0.0818 
     91 H91        24.4277   -3.1009   -9.3664 H         1 UNK         0.0819 
     92 H92        24.4765   -3.7630   -7.7389 H         1 UNK         0.0819 
     93 H93        22.9284   -3.4484   -8.5229 H         1 UNK         0.0819 
     94 H94        23.1275   -2.5034   -6.0612 H         1 UNK         0.3041 
     95 H95        22.4962    0.2832   -3.9446 H         1 UNK         0.0784 
     96 H96        20.3009   -0.1856   -5.0551 H         1 UNK         0.0793 
     97 H97        20.6102   -1.9136   -4.9577 H         1 UNK         0.0793 
     98 H98        20.4090   -0.9626   -3.4854 H         1 UNK         0.0793 
     99 H99        22.4456   -2.4350   -3.2855 H         1 UNK         0.3024 
    100 H100       24.2029   -3.0258   -1.7193 H         1 UNK         0.1171 
    101 H101       24.0734   -4.4713   -3.7829 H         1 UNK         0.0786 
    102 H102       25.7031   -3.9926   -4.2412 H         1 UNK         0.0786 
    103 H103       25.4363   -4.9579   -2.7923 H         1 UNK         0.0786 
    104 H104       26.6098   -1.6592   -2.5341 H         1 UNK         0.2977 
    105 H105       25.9544    0.2716   -4.9084 H         1 UNK         0.3127 
    106 H106       27.3919    2.6545   -4.5169 H         1 UNK         0.0770 
    107 H107       24.3651    2.1748   -4.3809 H         1 UNK         0.0814 
    108 H108       25.2233    3.5195   -3.6376 H         1 UNK         0.0814 
    109 H109       25.5115    1.8781   -3.0769 H         1 UNK         0.0814 
    110 H110       25.1535    1.7860   -7.1317 H         1 UNK         0.2983 
    111 H111       25.0801    4.4918   -8.2627 H         1 UNK         0.0947 
    112 H112       23.9908    1.8195   -9.2999 H         1 UNK         0.0806 
    113 H113       23.6904    3.3967  -10.0185 H         1 UNK         0.0806 
    114 H114       23.0822    3.0363   -8.4098 H         1 UNK         0.0806 
    115 H115       26.4603    1.2903   -9.1928 H         1 UNK         0.3000 
    116 H116       27.6708    2.3717  -11.5993 H         1 UNK         0.0850 
    117 H117       28.3155    0.0069  -11.9654 H         1 UNK         0.0810 
    118 H118       26.6344    0.0946  -11.4665 H         1 UNK         0.0810 
    119 H119       27.8715   -0.4051  -10.3146 H         1 UNK         0.0810 
    120 H120       28.8087    2.1758   -8.3779 H         1 UNK         0.3040 
    121 H121       30.6808    2.6049   -7.3332 H         1 UNK         0.0766 
    122 H122       32.1720    3.0387   -9.9744 H         1 UNK         0.0812 
    123 H123       32.7461    3.4295   -8.3650 H         1 UNK         0.0812 
    124 H124       31.3721    4.2969   -9.0328 H         1 UNK         0.0812 
    125 H125       31.2028    0.5624  -10.1573 H         1 UNK         0.3205 
    126 H126       31.7936   -1.5157  -10.5303 H         1 UNK         0.0754 
    127 H127       30.0266   -2.1203   -8.9496 H         1 UNK         0.0769 
    128 H128       31.1262   -1.9860   -7.5837 H         1 UNK         0.0769 
    129 H129       31.3538   -3.2575   -8.7750 H         1 UNK         0.0769 
    130 H130       33.3572   -0.6767   -7.4262 H         1 UNK         0.2981 
    131 H131       35.6870   -2.3604   -7.9397 H         1 UNK         0.0541 
    132 H132       38.1700   -0.0405   -9.0111 H         1 UNK         0.3459 
    133 H133       37.8867   -1.6098   -8.3044 H         1 UNK         0.3459 
    134 H134       35.1854   -0.3084   -5.7206 H         1 UNK         0.0612 
    135 H135       36.5696   -1.3662   -5.8065 H         1 UNK         0.0612 
    136 H136       32.7547   -1.0963   -5.2262 H         1 UNK         0.0624 
    137 H137       33.6887   -0.9471   -3.7576 H         1 UNK         0.0624 
@<TRIPOS>BOND
     1    1    2 1    
     2    1   72 1    
     3    1   73 1    
     4    1   74 1    
     5    2    3 2    
     6    2    4 am   BACKBONE|DICT|INTERRES
     7    4    5 1    
     8    4   75 1    
     9    5    6 1    
    10    5   35 1    
    11    5   76 1    
    12    6    7 1    
    13    6   77 1    
    14    6   78 1    
    15    7    8 1    
    16    8    9 1    
    17    8   79 1    
    18    8   80 1    
    19    9   10 ar   
    20    9   14 ar   
    21   10   11 ar   
    22   10   81 1    
    23   11   12 ar   
    24   11   71 1    
    25   12   13 ar   
    26   12   82 1    
    27   13   14 ar   
    28   13   15 1    
    29   14   83 1    
    30   15   16 1    
    31   15   84 1    
    32   15   85 1    
    33   16   17 1    
    34   17   18 1    
    35   17   86 1    
    36   17   87 1    
    37   18   19 1    
    38   18   37 1    
    39   18   88 1    
    40   19   20 am   BACKBONE|DICT|INTERRES
    41   19   89 1    
    42   20   21 2    
    43   20   22 1    
    44   22   23 1    
    45   22   24 1    
    46   22   90 1    
    47   23   91 1    
    48   23   92 1    
    49   23   93 1    
    50   24   25 am   BACKBONE|DICT|INTERRES
    51   24   94 1    
    52   25   26 2    
    53   25   27 1    
    54   27   28 1    
    55   27   29 1    
    56   27   95 1    
    57   28   96 1    
    58   28   97 1    
    59   28   98 1    
    60   29   30 am   BACKBONE|DICT|INTERRES
    61   29   99 1    
    62   30   31 2    
    63   30   32 1    
    64   32   33 1    
    65   32   34 1    
    66   32  100 1    
    67   33  101 1    
    68   33  102 1    
    69   33  103 1    
    70   34   35 am   BACKBONE|DICT|INTERRES
    71   34  104 1    
    72   35   36 2    
    73   37   38 2    
    74   37   39 am   BACKBONE|DICT|INTERRES
    75   39   40 1    
    76   39  105 1    
    77   40   41 1    
    78   40   42 1    
    79   40  106 1    
    80   41  107 1    
    81   41  108 1    
    82   41  109 1    
    83   42   43 2    
    84   42   44 am   BACKBONE|DICT|INTERRES
    85   44   45 1    
    86   44  110 1    
    87   45   46 1    
    88   45   47 1    
    89   45  111 1    
    90   46  112 1    
    91   46  113 1    
    92   46  114 1    
    93   47   48 2    
    94   47   49 am   BACKBONE|DICT|INTERRES
    95   49   50 1    
    96   49  115 1    
    97   50   51 1    
    98   50   52 1    
    99   50  116 1    
   100   51  117 1    
   101   51  118 1    
   102   51  119 1    
   103   52   53 2    
   104   52   54 am   BACKBONE|DICT|INTERRES
   105   54   55 1    
   106   54  120 1    
   107   55   56 1    
   108   55   57 1    
   109   55  121 1    
   110   56  122 1    
   111   56  123 1    
   112   56  124 1    
   113   57   58 2    
   114   57   59 am   BACKBONE|DICT|INTERRES
   115   59   60 1    
   116   59  125 1    
   117   60   61 1    
   118   60   62 1    
   119   60  126 1    
   120   61  127 1    
   121   61  128 1    
   122   61  129 1    
   123   62   63 2    
   124   62   64 am   BACKBONE|DICT|INTERRES
   125   64   65 1    
   126   64  130 1    
   127   65   66 1    
   128   65   69 1    
   129   65  131 1    
   130   66   67 am   BACKBONE|DICT|INTERRES
   131   66   68 2    
   132   67  132 1    
   133   67  133 1    
   134   69   70 1    
   135   69  134 1    
   136   69  135 1    
   137   70   71 1    
   138   71  136 1    
   139   71  137 1    
@<TRIPOS>SUBSTRUCTURE
     1 UNK         1 GROUP             0       ****    0 ROOT    
