@<TRIPOS>MOLECULE
3R137
137   139    1
SMALL
USER_CHARGES


@<TRIPOS>ATOM
      1 CA         30.9641   -3.5515    1.2884 C.3       0 UNK        -0.2020 
      2 C          29.8111   -3.7551    0.3165 C.2       0 UNK         0.4855 
      3 O          28.9986   -4.6587    0.5161 O.2       0 UNK        -0.5197 
      4 N          29.7445   -2.9254   -0.7331 N.am      1 UNK        -0.4892 
      5 CA         28.7048   -2.9170   -1.7689 C.3       1 UNK         0.0835 
      6 C6         28.6694   -4.2367   -2.5979 C.3       12 UNK        -0.0855 
      7 S7         28.0450   -3.9821   -4.2966 S.3       12 UNK        -0.2931 
      8 C8         29.5902   -3.9395   -5.2583 C.3       12 UNK         0.0378 
      9 C9         30.5126   -2.8185   -4.8015 C.ar      12 UNK        -0.0802 
     10 C10        31.7307   -3.1119   -4.1800 C.ar      12 UNK        -0.0944 
     11 C11        32.5861   -2.0822   -3.7795 C.ar      12 UNK        -0.0787 
     12 C12        32.1907   -0.7533   -3.9570 C.ar      12 UNK        -0.0862 
     13 C13        30.9930   -0.4470   -4.6051 C.ar      12 UNK        -0.0733 
     14 C14        30.1622   -1.4863   -5.0337 C.ar      12 UNK        -0.0832 
     15 C15        30.6430    1.0050   -4.8976 C.3       12 UNK         0.0240 
     16 S16        29.5056    1.7266   -3.6657 S.3       12 UNK        -0.2522 
     17 C17        27.9183    0.8578   -3.9307 C.3       12 UNK        -0.0967 
     18 CA         27.3681    0.9047   -5.3785 C.3       5 UNK         0.0660 
     19 N          26.3806   -0.1485   -5.6135 N.am      5 UNK        -0.4015 
     20 C          26.0202   -0.5721   -6.8343 C.2       4 UNK         0.4946 
     21 O          26.5534   -0.1633   -7.8661 O.2       4 UNK        -0.5353 
     22 CA         24.8533   -1.5743   -6.9428 C.3       4 UNK         0.0277 
     23 CB         25.3797   -2.9954   -7.1926 C.3       4 UNK        -0.1981 
     24 N          23.9655   -1.5857   -5.7759 N.am      4 UNK        -0.4209 
     25 C          23.2411   -0.5390   -5.3545 C.2       3 UNK         0.4942 
     26 O          23.1963    0.5362   -5.9505 O.2       3 UNK        -0.5208 
     27 CA         22.5046   -0.6825   -4.0095 C.3       3 UNK         0.0250 
     28 CB         21.0504   -1.1220   -4.2416 C.3       3 UNK        -0.1990 
     29 N          23.1419   -1.5931   -3.0466 N.am      3 UNK        -0.4232 
     30 C          24.4096   -1.5200   -2.6117 C.2       2 UNK         0.4993 
     31 O          25.2169   -0.6852   -3.0271 O.2       2 UNK        -0.5286 
     32 CA         24.8624   -2.5586   -1.5679 C.3       2 UNK         0.0209 
     33 CB         23.9959   -3.8351   -1.5477 C.3       2 UNK        -0.1931 
     34 N          26.2476   -2.9407   -1.8369 N.am      2 UNK        -0.4546 
     35 C          27.3311   -2.4693   -1.2096 C.2       1 UNK         0.5154 
     36 O          27.2804   -1.6936   -0.2506 O.2       1 UNK        -0.5181 
     37 C          26.8479    2.2995   -5.7876 C.2       5 UNK         0.5014 
     38 O          27.6492    3.1270   -6.2219 O.2       5 UNK        -0.5248 
     39 N          25.5238    2.5262   -5.7400 N.am      6 UNK        -0.4434 
     40 CA         24.8922    3.7418   -6.2713 C.3       6 UNK         0.0363 
     41 CB         23.4541    3.8637   -5.7430 C.3       6 UNK        -0.1936 
     42 C          24.9163    3.7930   -7.8115 C.2       6 UNK         0.5081 
     43 O          24.9089    4.8845   -8.3800 O.2       6 UNK        -0.5248 
     44 N          24.9877    2.6191   -8.4556 N.am      7 UNK        -0.4718 
     45 CA         25.2135    2.4556   -9.8944 C.3       7 UNK         0.0273 
     46 CB         24.5143    1.1672  -10.3633 C.3       7 UNK        -0.1935 
     47 C          26.7124    2.4383  -10.2646 C.2       7 UNK         0.5018 
     48 O          27.0284    2.3053  -11.4476 O.2       7 UNK        -0.5186 
     49 N          27.5992    2.5712   -9.2645 N.am      8 UNK        -0.4240 
     50 CA         29.0633    2.5756   -9.3496 C.3       8 UNK         0.0235 
     51 CB         29.5655    3.8151  -10.1213 C.3       8 UNK        -0.2000 
     52 C          29.6555    1.2523   -9.8732 C.2       8 UNK         0.4941 
     53 O          30.6201    1.2752  -10.6415 O.2       8 UNK        -0.5273 
     54 N          29.0796    0.1195   -9.4453 N.am      9 UNK        -0.4262 
     55 CA         29.5987   -1.2223   -9.7231 C.3       9 UNK         0.0264 
     56 CB         28.5313   -2.2569   -9.3316 C.3       9 UNK        -0.1955 
     57 C          30.9105   -1.5118   -8.9693 C.2       9 UNK         0.5031 
     58 O          31.1971   -0.8621   -7.9607 O.2       9 UNK        -0.5390 
     59 N          31.6466   -2.5229   -9.4563 N.am      10 UNK        -0.4204 
     60 CA         32.8546   -3.1210   -8.8722 C.3       10 UNK         0.0237 
     61 CB         32.4726   -4.0602   -7.7110 C.3       10 UNK        -0.1985 
     62 C          33.9298   -2.0822   -8.5008 C.2       10 UNK         0.4970 
     63 O          34.6005   -1.5819   -9.4053 O.2       10 UNK        -0.4914 
     64 N          34.0865   -1.7871   -7.2018 N.am      11 UNK        -0.4285 
     65 CA         35.0523   -0.8028   -6.6872 C.3       11 UNK         0.1007 
     66 C          34.6911    0.6760   -7.0195 C.2       11 UNK         0.5703 
     67 N          33.4660    0.9893   -7.4292 N.am      11 UNK        -0.7361 
     68 O          35.5430    1.5539   -6.9031 O.2       11 UNK        -0.4986 
     69 C69        35.3814   -0.9614   -5.1691 C.3       12 UNK        -0.0947 
     70 S70        35.2179   -2.6470   -4.4733 S.3       12 UNK        -0.2240 
     71 C71        33.9483   -2.4047   -3.1816 C.3       12 UNK         0.0194 
     72 H72        31.5616   -4.4602    1.3571 H         1 UNK         0.0906 
     73 H73        31.6204   -2.7378    0.9802 H         1 UNK         0.0906 
     74 H74        30.5804   -3.3200    2.2817 H         1 UNK         0.0906 
     75 H75        30.4305   -2.1880   -0.8171 H         1 UNK         0.3140 
     76 H76        29.0070   -2.1124   -2.4398 H         1 UNK         0.1085 
     77 H77        29.6718   -4.6621   -2.6654 H         1 UNK         0.0836 
     78 H78        28.0713   -5.0028   -2.1005 H         1 UNK         0.0836 
     79 H79        29.3481   -3.7985   -6.3128 H         1 UNK         0.0731 
     80 H80        30.0862   -4.9086   -5.1849 H         1 UNK         0.0731 
     81 H81        32.0261   -4.1413   -4.0295 H         1 UNK         0.1312 
     82 H82        32.8327    0.0505   -3.6262 H         1 UNK         0.1406 
     83 H83        29.2442   -1.2678   -5.5583 H         1 UNK         0.1631 
     84 H84        30.2597    1.1089   -5.9116 H         1 UNK         0.0717 
     85 H85        31.5554    1.6033   -4.8900 H         1 UNK         0.0717 
     86 H86        28.0634   -0.1772   -3.6203 H         1 UNK         0.0934 
     87 H87        27.1841    1.2627   -3.2314 H         1 UNK         0.0934 
     88 H88        28.1828    0.6868   -6.0653 H         1 UNK         0.0739 
     89 H89        25.8945   -0.4974   -4.7900 H         1 UNK         0.3093 
     90 H90        24.2556   -1.2754   -7.8064 H         1 UNK         0.0818 
     91 H91        24.5628   -3.7052   -7.3236 H         1 UNK         0.0819 
     92 H92        25.9830   -3.0340   -8.0995 H         1 UNK         0.0819 
     93 H93        26.0023   -3.3469   -6.3700 H         1 UNK         0.0819 
     94 H94        23.9489   -2.4301   -5.2230 H         1 UNK         0.3041 
     95 H95        22.4911    0.3080   -3.5500 H         1 UNK         0.0784 
     96 H96        20.5450   -0.4487   -4.9359 H         1 UNK         0.0793 
     97 H97        20.9939   -2.1266   -4.6627 H         1 UNK         0.0793 
     98 H98        20.4788   -1.1129   -3.3133 H         1 UNK         0.0793 
     99 H99        22.5523   -2.3172   -2.6617 H         1 UNK         0.3024 
    100 H100       24.7897   -2.0786   -0.5894 H         1 UNK         0.1171 
    101 H101       24.3953   -4.5651   -0.8430 H         1 UNK         0.0786 
    102 H102       22.9745   -3.6229   -1.2294 H         1 UNK         0.0786 
    103 H103       23.9517   -4.3152   -2.5265 H         1 UNK         0.0786 
    104 H104       26.4051   -3.5169   -2.6543 H         1 UNK         0.2977 
    105 H105       24.8980    1.7873   -5.4407 H         1 UNK         0.3127 
    106 H106       25.4566    4.6025   -5.9054 H         1 UNK         0.0770 
    107 H107       22.8055    3.0836   -6.1413 H         1 UNK         0.0814 
    108 H108       23.0179    4.8208   -6.0319 H         1 UNK         0.0814 
    109 H109       23.4213    3.8082   -4.6549 H         1 UNK         0.0814 
    110 H110       24.9895    1.7702   -7.9067 H         1 UNK         0.2983 
    111 H111       24.7626    3.2967  -10.4256 H         1 UNK         0.0947 
    112 H112       24.9603    0.2774   -9.9189 H         1 UNK         0.0806 
    113 H113       24.5854    1.0569  -11.4462 H         1 UNK         0.0806 
    114 H114       23.4542    1.1748  -10.1094 H         1 UNK         0.0806 
    115 H115       27.2306    2.6767   -8.3277 H         1 UNK         0.3000 
    116 H116       29.4210    2.6683   -8.3229 H         1 UNK         0.0850 
    117 H117       29.1531    4.7345   -9.7060 H         1 UNK         0.0810 
    118 H118       29.2961    3.7720  -11.1770 H         1 UNK         0.0810 
    119 H119       30.6519    3.8955  -10.0669 H         1 UNK         0.0810 
    120 H120       28.2683    0.1718   -8.8360 H         1 UNK         0.3040 
    121 H121       29.7870   -1.2977  -10.7962 H         1 UNK         0.0766 
    122 H122       28.8376   -3.2672   -9.6048 H         1 UNK         0.0812 
    123 H123       27.5839   -2.0588   -9.8335 H         1 UNK         0.0812 
    124 H124       28.3498   -2.2524   -8.2561 H         1 UNK         0.0812 
    125 H125       31.3328   -2.9547  -10.3143 H         1 UNK         0.3205 
    126 H126       33.2976   -3.7409   -9.6533 H         1 UNK         0.0754 
    127 H127       33.3543   -4.5149   -7.2568 H         1 UNK         0.0769 
    128 H128       31.8323   -4.8721   -8.0557 H         1 UNK         0.0769 
    129 H129       31.9341   -3.5264   -6.9337 H         1 UNK         0.0769 
    130 H130       33.4717   -2.2051   -6.5186 H         1 UNK         0.2981 
    131 H131       35.9844   -1.0001   -7.2203 H         1 UNK         0.0541 
    132 H132       33.2522    1.9477   -7.6492 H         1 UNK         0.3459 
    133 H133       32.7538    0.2722   -7.5391 H         1 UNK         0.3459 
    134 H134       36.4112   -0.6438   -4.9981 H         1 UNK         0.0612 
    135 H135       34.7884   -0.2766   -4.5666 H         1 UNK         0.0612 
    136 H136       34.2666   -1.6130   -2.5015 H         1 UNK         0.0624 
    137 H137       33.8803   -3.3129   -2.5810 H         1 UNK         0.0624 
@<TRIPOS>BOND
     1    1    2 1    
     2    1   72 1    
     3    1   73 1    
     4    1   74 1    
     5    2    3 2    
     6    2    4 am   BACKBONE|DICT|INTERRES
     7    4    5 1    
     8    4   75 1    
     9    5    6 1    
    10    5   35 1    
    11    5   76 1    
    12    6    7 1    
    13    6   77 1    
    14    6   78 1    
    15    7    8 1    
    16    8    9 1    
    17    8   79 1    
    18    8   80 1    
    19    9   10 ar   
    20    9   14 ar   
    21   10   11 ar   
    22   10   81 1    
    23   11   12 ar   
    24   11   71 1    
    25   12   13 ar   
    26   12   82 1    
    27   13   14 ar   
    28   13   15 1    
    29   14   83 1    
    30   15   16 1    
    31   15   84 1    
    32   15   85 1    
    33   16   17 1    
    34   17   18 1    
    35   17   86 1    
    36   17   87 1    
    37   18   19 1    
    38   18   37 1    
    39   18   88 1    
    40   19   20 am   BACKBONE|DICT|INTERRES
    41   19   89 1    
    42   20   21 2    
    43   20   22 1    
    44   22   23 1    
    45   22   24 1    
    46   22   90 1    
    47   23   91 1    
    48   23   92 1    
    49   23   93 1    
    50   24   25 am   BACKBONE|DICT|INTERRES
    51   24   94 1    
    52   25   26 2    
    53   25   27 1    
    54   27   28 1    
    55   27   29 1    
    56   27   95 1    
    57   28   96 1    
    58   28   97 1    
    59   28   98 1    
    60   29   30 am   BACKBONE|DICT|INTERRES
    61   29   99 1    
    62   30   31 2    
    63   30   32 1    
    64   32   33 1    
    65   32   34 1    
    66   32  100 1    
    67   33  101 1    
    68   33  102 1    
    69   33  103 1    
    70   34   35 am   BACKBONE|DICT|INTERRES
    71   34  104 1    
    72   35   36 2    
    73   37   38 2    
    74   37   39 am   BACKBONE|DICT|INTERRES
    75   39   40 1    
    76   39  105 1    
    77   40   41 1    
    78   40   42 1    
    79   40  106 1    
    80   41  107 1    
    81   41  108 1    
    82   41  109 1    
    83   42   43 2    
    84   42   44 am   BACKBONE|DICT|INTERRES
    85   44   45 1    
    86   44  110 1    
    87   45   46 1    
    88   45   47 1    
    89   45  111 1    
    90   46  112 1    
    91   46  113 1    
    92   46  114 1    
    93   47   48 2    
    94   47   49 am   BACKBONE|DICT|INTERRES
    95   49   50 1    
    96   49  115 1    
    97   50   51 1    
    98   50   52 1    
    99   50  116 1    
   100   51  117 1    
   101   51  118 1    
   102   51  119 1    
   103   52   53 2    
   104   52   54 am   BACKBONE|DICT|INTERRES
   105   54   55 1    
   106   54  120 1    
   107   55   56 1    
   108   55   57 1    
   109   55  121 1    
   110   56  122 1    
   111   56  123 1    
   112   56  124 1    
   113   57   58 2    
   114   57   59 am   BACKBONE|DICT|INTERRES
   115   59   60 1    
   116   59  125 1    
   117   60   61 1    
   118   60   62 1    
   119   60  126 1    
   120   61  127 1    
   121   61  128 1    
   122   61  129 1    
   123   62   63 2    
   124   62   64 am   BACKBONE|DICT|INTERRES
   125   64   65 1    
   126   64  130 1    
   127   65   66 1    
   128   65   69 1    
   129   65  131 1    
   130   66   67 am   BACKBONE|DICT|INTERRES
   131   66   68 2    
   132   67  132 1    
   133   67  133 1    
   134   69   70 1    
   135   69  134 1    
   136   69  135 1    
   137   70   71 1    
   138   71  136 1    
   139   71  137 1    
@<TRIPOS>SUBSTRUCTURE
     1 UNK         1 GROUP             0       ****    0 ROOT    
