@<TRIPOS>MOLECULE
3R137
137   139    1
SMALL
USER_CHARGES


@<TRIPOS>ATOM
      1 CA         24.9857   -4.3450    2.3710 C.3       0 UNK        -0.2020 
      2 C          26.2592   -4.9570    1.7926 C.2       0 UNK         0.4855 
      3 O          26.3863   -6.1796    1.7816 O.2       0 UNK        -0.5197 
      4 N          27.2316   -4.1690    1.3105 N.am      1 UNK        -0.4892 
      5 CA         27.2307   -2.7042    1.1827 C.3       1 UNK         0.0835 
      6 C6         28.6483   -2.1502    0.8777 C.3       12 UNK        -0.0855 
      7 S7         29.5324   -3.0271   -0.4629 S.3       12 UNK        -0.2931 
      8 C8         29.3087   -1.8749   -1.8505 C.3       12 UNK         0.0378 
      9 C9         29.8780   -2.4456   -3.1395 C.ar      12 UNK        -0.0802 
     10 C10        31.0415   -1.9091   -3.6948 C.ar      12 UNK        -0.0944 
     11 C11        31.5478   -2.3990   -4.9036 C.ar      12 UNK        -0.0787 
     12 C12        30.8938   -3.4617   -5.5392 C.ar      12 UNK        -0.0862 
     13 C13        29.7437   -4.0281   -4.9772 C.ar      12 UNK        -0.0733 
     14 C14        29.2339   -3.5041   -3.7849 C.ar      12 UNK        -0.0832 
     15 C15        29.0834   -5.2426   -5.6210 C.3       12 UNK         0.0240 
     16 S16        28.1186   -4.8415   -7.1135 S.3       12 UNK        -0.2522 
     17 C17        26.7627   -3.8188   -6.4404 C.3       12 UNK        -0.0967 
     18 CA         26.5355   -2.5102   -7.2352 C.3       5 UNK         0.0660 
     19 N          25.3322   -1.8073   -6.7812 N.am      5 UNK        -0.4015 
     20 C          24.8263   -0.6997   -7.3493 C.2       4 UNK         0.4946 
     21 O          25.2288   -0.2261   -8.4112 O.2       4 UNK        -0.5353 
     22 CA         23.7836    0.0690   -6.5328 C.3       4 UNK         0.0277 
     23 CB         22.4114   -0.6256   -6.5505 C.3       4 UNK        -0.1981 
     24 N          24.2849    0.1953   -5.1684 N.am      4 UNK        -0.4209 
     25 C          24.0793    1.1904   -4.3064 C.2       3 UNK         0.4942 
     26 O          23.3445    2.1529   -4.5327 O.2       3 UNK        -0.5208 
     27 CA         24.8393    1.0723   -2.9645 C.3       3 UNK         0.0250 
     28 CB         24.3904    2.1279   -1.9371 C.3       3 UNK        -0.1990 
     29 N          24.7431   -0.2591   -2.3486 N.am      3 UNK        -0.4232 
     30 C          25.3298   -1.3876   -2.7720 C.2       2 UNK         0.4993 
     31 O          26.0614   -1.4439   -3.7674 O.2       2 UNK        -0.5286 
     32 CA         25.0065   -2.6684   -1.9792 C.3       2 UNK         0.0209 
     33 CB         24.9187   -3.8974   -2.9015 C.3       2 UNK        -0.1931 
     34 N          25.9798   -2.9414   -0.9203 N.am      2 UNK        -0.4546 
     35 C          26.1863   -2.1892    0.1700 C.2       1 UNK         0.5154 
     36 O          25.5603   -1.1592    0.4205 O.2       1 UNK        -0.5181 
     37 C          27.7645   -1.5784   -7.1953 C.2       5 UNK         0.5014 
     38 O          28.5127   -1.5352   -8.1706 O.2       5 UNK        -0.5248 
     39 N          27.9028   -0.7966   -6.1120 N.am      6 UNK        -0.4434 
     40 CA         28.9446    0.2232   -5.9591 C.3       6 UNK         0.0363 
     41 CB         28.8127    0.8950   -4.5839 C.3       6 UNK        -0.1936 
     42 C          28.9336    1.2884   -7.0699 C.2       6 UNK         0.5081 
     43 O          29.9960    1.6664   -7.5655 O.2       6 UNK        -0.5248 
     44 N          27.7285    1.7309   -7.4559 N.am      7 UNK        -0.4718 
     45 CA         27.5057    2.6915   -8.5367 C.3       7 UNK         0.0273 
     46 CB         26.0773    3.2526   -8.4461 C.3       7 UNK        -0.1935 
     47 C          27.7722    2.0823   -9.9219 C.2       7 UNK         0.5018 
     48 O          28.3862    2.7449  -10.7577 O.2       7 UNK        -0.5186 
     49 N          27.3332    0.8321  -10.1314 N.am      8 UNK        -0.4240 
     50 CA         27.5656    0.0602  -11.3557 C.3       8 UNK         0.0235 
     51 CB         26.7221   -1.2246  -11.3269 C.3       8 UNK        -0.2000 
     52 C          29.0518   -0.2658  -11.5815 C.2       8 UNK         0.4941 
     53 O          29.5345   -0.1332  -12.7069 O.2       8 UNK        -0.5273 
     54 N          29.7526   -0.6622  -10.5097 N.am      9 UNK        -0.4262 
     55 CA         31.1976   -0.9011  -10.4970 C.3       9 UNK         0.0264 
     56 CB         31.5757   -1.6515   -9.2084 C.3       9 UNK        -0.1955 
     57 C          32.0224    0.3920  -10.6155 C.2       9 UNK         0.5031 
     58 O          33.1425    0.3397  -11.1255 O.2       9 UNK        -0.5390 
     59 N          31.4644    1.5105  -10.1255 N.am      10 UNK        -0.4204 
     60 CA         32.0699    2.8432  -10.0158 C.3       10 UNK         0.0237 
     61 CB         32.3358    3.4504  -11.4096 C.3       10 UNK        -0.1985 
     62 C          33.3098    2.8486   -9.0995 C.2       10 UNK         0.4970 
     63 O          34.2759    3.5657   -9.3667 O.2       10 UNK        -0.4914 
     64 N          33.2576    2.0330   -8.0398 N.am      11 UNK        -0.4285 
     65 CA         34.3353    1.8398   -7.0593 C.3       11 UNK         0.1007 
     66 C          34.4333    2.9491   -5.9711 C.2       11 UNK         0.5703 
     67 N          33.4849    3.8740   -5.8748 N.am      11 UNK        -0.7361 
     68 O          35.3996    2.9813   -5.2125 O.2       11 UNK        -0.4986 
     69 C69        34.2912    0.4108   -6.4541 C.3       12 UNK        -0.0947 
     70 S70        32.6961    0.0150   -5.6667 S.3       12 UNK        -0.2240 
     71 C71        32.8121   -1.7954   -5.5062 C.3       12 UNK         0.0194 
     72 H72        25.2010   -3.5010    3.0246 H         1 UNK         0.0906 
     73 H73        24.3211   -4.0144    1.5734 H         1 UNK         0.0906 
     74 H74        24.4477   -5.0841    2.9643 H         1 UNK         0.0906 
     75 H75        28.0649   -4.6101    0.9449 H         1 UNK         0.3140 
     76 H76        26.9412   -2.2916    2.1511 H         1 UNK         0.1085 
     77 H77        28.6185   -1.0780    0.6714 H         1 UNK         0.0836 
     78 H78        29.2620   -2.2476    1.7748 H         1 UNK         0.0836 
     79 H79        29.7844   -0.9237   -1.6060 H         1 UNK         0.0731 
     80 H80        28.2500   -1.6615   -1.9928 H         1 UNK         0.0731 
     81 H81        31.5476   -1.0942   -3.1955 H         1 UNK         0.1312 
     82 H82        31.2853   -3.8610   -6.4649 H         1 UNK         0.1406 
     83 H83        28.3451   -3.9309   -3.3418 H         1 UNK         0.1631 
     84 H84        28.4354   -5.7534   -4.9069 H         1 UNK         0.0717 
     85 H85        29.8559   -5.9636   -5.8923 H         1 UNK         0.0717 
     86 H86        25.8569   -4.4268   -6.4619 H         1 UNK         0.0934 
     87 H87        26.9456   -3.5951   -5.3899 H         1 UNK         0.0934 
     88 H88        26.3666   -2.7785   -8.2801 H         1 UNK         0.0739 
     89 H89        24.9296   -2.1413   -5.9187 H         1 UNK         0.3093 
     90 H90        23.6827    1.0647   -6.9707 H         1 UNK         0.0818 
     91 H91        21.6678   -0.0393   -6.0103 H         1 UNK         0.0819 
     92 H92        22.0490   -0.7454   -7.5724 H         1 UNK         0.0819 
     93 H93        22.4479   -1.6162   -6.0961 H         1 UNK         0.0819 
     94 H94        24.9443   -0.5136   -4.8575 H         1 UNK         0.3041 
     95 H95        25.8918    1.2585   -3.1852 H         1 UNK         0.0784 
     96 H96        24.5216    3.1379   -2.3279 H         1 UNK         0.0793 
     97 H97        23.3378    2.0126   -1.6752 H         1 UNK         0.0793 
     98 H98        24.9746    2.0613   -1.0189 H         1 UNK         0.0793 
     99 H99        24.1909   -0.3092   -1.5032 H         1 UNK         0.3024 
    100 H100       24.0275   -2.5376   -1.5126 H         1 UNK         0.1171 
    101 H101       24.5581   -4.7719   -2.3595 H         1 UNK         0.0786 
    102 H102       24.2261   -3.7227   -3.7259 H         1 UNK         0.0786 
    103 H103       25.8862   -4.1514   -3.3336 H         1 UNK         0.0786 
    104 H104       26.5467   -3.7701   -1.0276 H         1 UNK         0.2977 
    105 H105       27.2841   -0.9444   -5.3216 H         1 UNK         0.3127 
    106 H106       29.8999   -0.2975   -6.0071 H         1 UNK         0.0770 
    107 H107       27.9023    1.4898   -4.5094 H         1 UNK         0.0814 
    108 H108       29.6557    1.5623   -4.3993 H         1 UNK         0.0814 
    109 H109       28.7977    0.1622   -3.7797 H         1 UNK         0.0814 
    110 H110       26.9091    1.3335   -7.0222 H         1 UNK         0.2983 
    111 H111       28.2043    3.5205   -8.4011 H         1 UNK         0.0947 
    112 H112       25.9065    4.0039   -9.2183 H         1 UNK         0.0806 
    113 H113       25.8990    3.7324   -7.4836 H         1 UNK         0.0806 
    114 H114       25.3242    2.4754   -8.5784 H         1 UNK         0.0806 
    115 H115       26.7829    0.3815   -9.4047 H         1 UNK         0.3000 
    116 H116       27.2288    0.6685  -12.1978 H         1 UNK         0.0850 
    117 H117       26.8461   -1.7934  -12.2493 H         1 UNK         0.0810 
    118 H118       25.6604   -0.9997  -11.2232 H         1 UNK         0.0810 
    119 H119       27.0072   -1.8762  -10.5006 H         1 UNK         0.0810 
    120 H120       29.2571   -0.8288   -9.6327 H         1 UNK         0.3040 
    121 H121       31.4463   -1.5347  -11.3509 H         1 UNK         0.0766 
    122 H122       31.3219   -1.0744   -8.3179 H         1 UNK         0.0812 
    123 H123       32.6466   -1.8558   -9.1718 H         1 UNK         0.0812 
    124 H124       31.0584   -2.6087   -9.1401 H         1 UNK         0.0812 
    125 H125       30.5645    1.4173   -9.6688 H         1 UNK         0.3205 
    126 H126       31.3260    3.4695   -9.5211 H         1 UNK         0.0754 
    127 H127       32.6548    4.4902  -11.3287 H         1 UNK         0.0769 
    128 H128       31.4350    3.4352  -12.0236 H         1 UNK         0.0769 
    129 H129       33.1173    2.9112  -11.9457 H         1 UNK         0.0769 
    130 H130       32.4024    1.5238   -7.8587 H         1 UNK         0.2981 
    131 H131       35.2776    1.9065   -7.6063 H         1 UNK         0.0541 
    132 H132       32.6856    3.8485   -6.4868 H         1 UNK         0.3459 
    133 H133       33.5633    4.5913   -5.1716 H         1 UNK         0.3459 
    134 H134       35.0920    0.2661   -5.7267 H         1 UNK         0.0612 
    135 H135       34.4708   -0.3185   -7.2457 H         1 UNK         0.0612 
    136 H136       33.0117   -2.2246   -6.4890 H         1 UNK         0.0624 
    137 H137       33.6639   -2.0458   -4.8728 H         1 UNK         0.0624 
@<TRIPOS>BOND
     1    1    2 1    
     2    1   72 1    
     3    1   73 1    
     4    1   74 1    
     5    2    3 2    
     6    2    4 am   BACKBONE|DICT|INTERRES
     7    4    5 1    
     8    4   75 1    
     9    5    6 1    
    10    5   35 1    
    11    5   76 1    
    12    6    7 1    
    13    6   77 1    
    14    6   78 1    
    15    7    8 1    
    16    8    9 1    
    17    8   79 1    
    18    8   80 1    
    19    9   10 ar   
    20    9   14 ar   
    21   10   11 ar   
    22   10   81 1    
    23   11   12 ar   
    24   11   71 1    
    25   12   13 ar   
    26   12   82 1    
    27   13   14 ar   
    28   13   15 1    
    29   14   83 1    
    30   15   16 1    
    31   15   84 1    
    32   15   85 1    
    33   16   17 1    
    34   17   18 1    
    35   17   86 1    
    36   17   87 1    
    37   18   19 1    
    38   18   37 1    
    39   18   88 1    
    40   19   20 am   BACKBONE|DICT|INTERRES
    41   19   89 1    
    42   20   21 2    
    43   20   22 1    
    44   22   23 1    
    45   22   24 1    
    46   22   90 1    
    47   23   91 1    
    48   23   92 1    
    49   23   93 1    
    50   24   25 am   BACKBONE|DICT|INTERRES
    51   24   94 1    
    52   25   26 2    
    53   25   27 1    
    54   27   28 1    
    55   27   29 1    
    56   27   95 1    
    57   28   96 1    
    58   28   97 1    
    59   28   98 1    
    60   29   30 am   BACKBONE|DICT|INTERRES
    61   29   99 1    
    62   30   31 2    
    63   30   32 1    
    64   32   33 1    
    65   32   34 1    
    66   32  100 1    
    67   33  101 1    
    68   33  102 1    
    69   33  103 1    
    70   34   35 am   BACKBONE|DICT|INTERRES
    71   34  104 1    
    72   35   36 2    
    73   37   38 2    
    74   37   39 am   BACKBONE|DICT|INTERRES
    75   39   40 1    
    76   39  105 1    
    77   40   41 1    
    78   40   42 1    
    79   40  106 1    
    80   41  107 1    
    81   41  108 1    
    82   41  109 1    
    83   42   43 2    
    84   42   44 am   BACKBONE|DICT|INTERRES
    85   44   45 1    
    86   44  110 1    
    87   45   46 1    
    88   45   47 1    
    89   45  111 1    
    90   46  112 1    
    91   46  113 1    
    92   46  114 1    
    93   47   48 2    
    94   47   49 am   BACKBONE|DICT|INTERRES
    95   49   50 1    
    96   49  115 1    
    97   50   51 1    
    98   50   52 1    
    99   50  116 1    
   100   51  117 1    
   101   51  118 1    
   102   51  119 1    
   103   52   53 2    
   104   52   54 am   BACKBONE|DICT|INTERRES
   105   54   55 1    
   106   54  120 1    
   107   55   56 1    
   108   55   57 1    
   109   55  121 1    
   110   56  122 1    
   111   56  123 1    
   112   56  124 1    
   113   57   58 2    
   114   57   59 am   BACKBONE|DICT|INTERRES
   115   59   60 1    
   116   59  125 1    
   117   60   61 1    
   118   60   62 1    
   119   60  126 1    
   120   61  127 1    
   121   61  128 1    
   122   61  129 1    
   123   62   63 2    
   124   62   64 am   BACKBONE|DICT|INTERRES
   125   64   65 1    
   126   64  130 1    
   127   65   66 1    
   128   65   69 1    
   129   65  131 1    
   130   66   67 am   BACKBONE|DICT|INTERRES
   131   66   68 2    
   132   67  132 1    
   133   67  133 1    
   134   69   70 1    
   135   69  134 1    
   136   69  135 1    
   137   70   71 1    
   138   71  136 1    
   139   71  137 1    
@<TRIPOS>SUBSTRUCTURE
     1 UNK         1 GROUP             0       ****    0 ROOT    
