@<TRIPOS>MOLECULE
3R137
137   139    1
SMALL
USER_CHARGES


@<TRIPOS>ATOM
      1 CA         24.4510   -6.2928   -2.7417 C.3       0 UNK        -0.2020 
      2 C          24.8433   -5.1964   -1.7637 C.2       0 UNK         0.4855 
      3 O          23.9885   -4.4178   -1.3396 O.2       0 UNK        -0.5197 
      4 N          26.1338   -5.1218   -1.4140 N.am      1 UNK        -0.4892 
      5 CA         26.7454   -4.1060   -0.5492 C.3       1 UNK         0.0835 
      6 C6         28.2463   -4.4018   -0.2687 C.3       12 UNK        -0.0855 
      7 S7         29.2027   -4.9982   -1.7142 S.3       12 UNK        -0.2931 
      8 C8         30.8721   -4.3662   -1.3658 C.3       12 UNK         0.0378 
      9 C9         31.1798   -3.0897   -2.1372 C.ar      12 UNK        -0.0802 
     10 C10        31.8305   -3.1582   -3.3728 C.ar      12 UNK        -0.0944 
     11 C11        32.1980   -1.9966   -4.0605 C.ar      12 UNK        -0.0787 
     12 C12        31.9018   -0.7507   -3.4897 C.ar      12 UNK        -0.0862 
     13 C13        31.2270   -0.6667   -2.2662 C.ar      12 UNK        -0.0733 
     14 C14        30.8670   -1.8406   -1.5965 C.ar      12 UNK        -0.0832 
     15 C15        30.9224    0.6891   -1.6385 C.3       12 UNK         0.0240 
     16 S16        29.8796    1.7542   -2.6878 S.3       12 UNK        -0.2522 
     17 C17        28.3945    0.7248   -2.9426 C.3       12 UNK        -0.0967 
     18 CA         28.2519    0.2798   -4.4208 C.3       5 UNK         0.0660 
     19 N          27.5715   -1.0145   -4.5396 N.am      5 UNK        -0.4015 
     20 C          27.3760   -1.7123   -5.6693 C.2       4 UNK         0.4946 
     21 O          27.7845   -1.3644   -6.7776 O.2       4 UNK        -0.5353 
     22 CA         26.5440   -2.9983   -5.5511 C.3       4 UNK         0.0277 
     23 CB         27.3966   -4.1671   -5.0332 C.3       4 UNK        -0.1981 
     24 N          25.3950   -2.7900   -4.6693 N.am      4 UNK        -0.4209 
     25 C          24.2445   -2.2202   -5.0575 C.2       3 UNK         0.4942 
     26 O          23.9845   -1.9348   -6.2260 O.2       3 UNK        -0.5208 
     27 CA         23.2138   -1.8867   -3.9639 C.3       3 UNK         0.0250 
     28 CB         22.1388   -2.9813   -3.8743 C.3       3 UNK        -0.1990 
     29 N          23.8216   -1.6779   -2.6460 N.am      3 UNK        -0.4232 
     30 C          24.5558   -0.6009   -2.3252 C.2       2 UNK         0.4993 
     31 O          24.7694    0.3319   -3.0991 O.2       2 UNK        -0.5286 
     32 CA         25.2133   -0.5834   -0.9324 C.3       2 UNK         0.0209 
     33 CB         24.2639    0.0399    0.1026 C.3       2 UNK        -0.1931 
     34 N          25.6464   -1.9061   -0.4675 N.am      2 UNK        -0.4546 
     35 C          26.5184   -2.6910   -1.1158 C.2       1 UNK         0.5154 
     36 O          27.0727   -2.3574   -2.1624 O.2       1 UNK        -0.5181 
     37 C          27.6075    1.3885   -5.2800 C.2       5 UNK         0.5014 
     38 O          28.3203    2.2671   -5.7641 O.2       5 UNK        -0.5248 
     39 N          26.2846    1.3136   -5.4897 N.am      6 UNK        -0.4434 
     40 CA         25.4870    2.2224   -6.3204 C.3       6 UNK         0.0363 
     41 CB         24.0187    1.7694   -6.2875 C.3       6 UNK        -0.1936 
     42 C          25.9658    2.3768   -7.7793 C.2       6 UNK         0.5081 
     43 O          25.6843    3.4102   -8.3866 O.2       6 UNK        -0.5248 
     44 N          26.6935    1.3832   -8.3133 N.am      7 UNK        -0.4718 
     45 CA         27.3407    1.4500   -9.6297 C.3       7 UNK         0.0273 
     46 CB         27.4210    0.0393  -10.2362 C.3       7 UNK        -0.1935 
     47 C          28.6990    2.1907   -9.6254 C.2       7 UNK         0.5018 
     48 O          29.3130    2.3158  -10.6875 O.2       7 UNK        -0.5186 
     49 N          29.1221    2.7073   -8.4596 N.am      8 UNK        -0.4240 
     50 CA         30.1999    3.6759   -8.2305 C.3       8 UNK         0.0235 
     51 CB         29.7484    5.0783   -8.6973 C.3       8 UNK        -0.2000 
     52 C          31.5541    3.2380   -8.8122 C.2       8 UNK         0.4941 
     53 O          32.2089    2.3747   -8.2299 O.2       8 UNK        -0.5273 
     54 N          31.9499    3.8299   -9.9480 N.am      9 UNK        -0.4262 
     55 CA         33.1919    3.5388  -10.6704 C.3       9 UNK         0.0264 
     56 CB         33.3525    4.5483  -11.8189 C.3       9 UNK        -0.1955 
     57 C          33.2898    2.0969  -11.2038 C.2       9 UNK         0.5031 
     58 O          34.4021    1.6327  -11.4596 O.2       9 UNK        -0.5390 
     59 N          32.1462    1.4169  -11.3521 N.am      10 UNK        -0.4204 
     60 CA         32.0468    0.0155  -11.7486 C.3       10 UNK         0.0237 
     61 CB         31.4817   -0.0619  -13.1804 C.3       10 UNK        -0.1985 
     62 C          31.1970   -0.7518  -10.7236 C.2       10 UNK         0.4970 
     63 O          30.3084   -1.5070  -11.1213 O.2       10 UNK        -0.4914 
     64 N          31.4603   -0.5286   -9.4261 N.am      11 UNK        -0.4285 
     65 CA         30.7484   -1.1698   -8.3106 C.3       11 UNK         0.1007 
     66 C          30.7727   -2.7232   -8.3302 C.2       11 UNK         0.5703 
     67 N          29.6951   -3.3494   -7.8806 N.am      11 UNK        -0.7361 
     68 O          31.7561   -3.3538   -8.7150 O.2       11 UNK        -0.4986 
     69 C69        31.1443   -0.6011   -6.9243 C.3       12 UNK        -0.0947 
     70 S70        32.9174   -0.7051   -6.5092 S.3       12 UNK        -0.2240 
     71 C71        32.9531   -2.1468   -5.3852 C.3       12 UNK         0.0194 
     72 H72        25.2603   -7.0056   -2.8990 H         1 UNK         0.0906 
     73 H73        23.5873   -6.8404   -2.3655 H         1 UNK         0.0906 
     74 H74        24.1878   -5.8596   -3.7061 H         1 UNK         0.0906 
     75 H75        26.7988   -5.7638   -1.8240 H         1 UNK         0.3140 
     76 H76        26.2258   -4.1585    0.4101 H         1 UNK         0.1085 
     77 H77        28.3151   -5.1787    0.4944 H         1 UNK         0.0836 
     78 H78        28.7355   -3.5287    0.1671 H         1 UNK         0.0836 
     79 H79        31.5934   -5.1391   -1.6358 H         1 UNK         0.0731 
     80 H80        31.0017   -4.2051   -0.2945 H         1 UNK         0.0731 
     81 H81        32.0735   -4.1256   -3.7913 H         1 UNK         0.1312 
     82 H82        32.1929    0.1623   -3.9897 H         1 UNK         0.1406 
     83 H83        30.3632   -1.7844   -0.6414 H         1 UNK         0.1631 
     84 H84        31.8630    1.2053   -1.4422 H         1 UNK         0.0717 
     85 H85        30.4326    0.5696   -0.6708 H         1 UNK         0.0717 
     86 H86        28.4675   -0.1432   -2.2871 H         1 UNK         0.0934 
     87 H87        27.5144    1.2734   -2.6015 H         1 UNK         0.0934 
     88 H88        29.2523    0.1177   -4.8202 H         1 UNK         0.0739 
     89 H89        27.2752   -1.4412   -3.6627 H         1 UNK         0.3093 
     90 H90        26.1849   -3.2615   -6.5486 H         1 UNK         0.0818 
     91 H91        28.2122   -4.3921   -5.7198 H         1 UNK         0.0819 
     92 H92        27.8466   -3.9450   -4.0669 H         1 UNK         0.0819 
     93 H93        26.8043   -5.0757   -4.9261 H         1 UNK         0.0819 
     94 H94        25.5511   -2.9451   -3.6822 H         1 UNK         0.3041 
     95 H95        22.7209   -0.9570   -4.2574 H         1 UNK         0.0784 
     96 H96        21.6318   -3.1072   -4.8320 H         1 UNK         0.0793 
     97 H97        22.5627   -3.9476   -3.6028 H         1 UNK         0.0793 
     98 H98        21.3771   -2.7301   -3.1360 H         1 UNK         0.0793 
     99 H99        23.7324   -2.4341   -1.9741 H         1 UNK         0.3024 
    100 H100       26.1018    0.0470   -1.0017 H         1 UNK         0.1171 
    101 H101       24.7500    0.1502    1.0722 H         1 UNK         0.0786 
    102 H102       23.9434    1.0344   -0.2116 H         1 UNK         0.0786 
    103 H103       23.3656   -0.5630    0.2426 H         1 UNK         0.0786 
    104 H104       25.1926   -2.2634    0.3615 H         1 UNK         0.2977 
    105 H105       25.7667    0.6152   -4.9685 H         1 UNK         0.3127 
    106 H106       25.5498    3.2098   -5.8589 H         1 UNK         0.0770 
    107 H107       23.8962    0.7748   -6.7176 H         1 UNK         0.0814 
    108 H108       23.3858    2.4512   -6.8573 H         1 UNK         0.0814 
    109 H109       23.6313    1.7452   -5.2687 H         1 UNK         0.0814 
    110 H110       26.8928    0.5660   -7.7477 H         1 UNK         0.2983 
    111 H111       26.7043    2.0358  -10.2967 H         1 UNK         0.0947 
    112 H112       27.8674   -0.6812   -9.5555 H         1 UNK         0.0806 
    113 H113       28.0040    0.0320  -11.1580 H         1 UNK         0.0806 
    114 H114       26.4266   -0.3299  -10.4867 H         1 UNK         0.0806 
    115 H115       28.5950    2.4787   -7.6198 H         1 UNK         0.3000 
    116 H116       30.3403    3.7218   -7.1493 H         1 UNK         0.0850 
    117 H117       30.5268    5.8232   -8.5258 H         1 UNK         0.0810 
    118 H118       28.8691    5.4051   -8.1416 H         1 UNK         0.0810 
    119 H119       29.4889    5.1009   -9.7563 H         1 UNK         0.0810 
    120 H120       31.3309    4.5090  -10.3668 H         1 UNK         0.3040 
    121 H121       34.0188    3.6794   -9.9712 H         1 UNK         0.0766 
    122 H122       33.3772    5.5731  -11.4479 H         1 UNK         0.0812 
    123 H123       32.5391    4.4701  -12.5415 H         1 UNK         0.0812 
    124 H124       34.2852    4.3798  -12.3594 H         1 UNK         0.0812 
    125 H125       31.2698    1.8681  -11.1001 H         1 UNK         0.3205 
    126 H126       33.0308   -0.4577  -11.7444 H         1 UNK         0.0754 
    127 H127       31.4248   -1.0949  -13.5259 H         1 UNK         0.0769 
    128 H128       32.1141    0.4793  -13.8844 H         1 UNK         0.0769 
    129 H129       30.4777    0.3609  -13.2382 H         1 UNK         0.0769 
    130 H130       32.1907    0.1205   -9.1665 H         1 UNK         0.2981 
    131 H131       29.7107   -0.8797   -8.4532 H         1 UNK         0.0541 
    132 H132       29.6695   -4.3561   -7.8746 H         1 UNK         0.3459 
    133 H133       28.9019   -2.8063   -7.5580 H         1 UNK         0.3459 
    134 H134       30.8549    0.4492   -6.8690 H         1 UNK         0.0612 
    135 H135       30.5672   -1.1000   -6.1460 H         1 UNK         0.0612 
    136 H136       33.9961   -2.3687   -5.1567 H         1 UNK         0.0624 
    137 H137       32.5693   -3.0111   -5.9289 H         1 UNK         0.0624 
@<TRIPOS>BOND
     1    1    2 1    
     2    1   72 1    
     3    1   73 1    
     4    1   74 1    
     5    2    3 2    
     6    2    4 am   BACKBONE|DICT|INTERRES
     7    4    5 1    
     8    4   75 1    
     9    5    6 1    
    10    5   35 1    
    11    5   76 1    
    12    6    7 1    
    13    6   77 1    
    14    6   78 1    
    15    7    8 1    
    16    8    9 1    
    17    8   79 1    
    18    8   80 1    
    19    9   10 ar   
    20    9   14 ar   
    21   10   11 ar   
    22   10   81 1    
    23   11   12 ar   
    24   11   71 1    
    25   12   13 ar   
    26   12   82 1    
    27   13   14 ar   
    28   13   15 1    
    29   14   83 1    
    30   15   16 1    
    31   15   84 1    
    32   15   85 1    
    33   16   17 1    
    34   17   18 1    
    35   17   86 1    
    36   17   87 1    
    37   18   19 1    
    38   18   37 1    
    39   18   88 1    
    40   19   20 am   BACKBONE|DICT|INTERRES
    41   19   89 1    
    42   20   21 2    
    43   20   22 1    
    44   22   23 1    
    45   22   24 1    
    46   22   90 1    
    47   23   91 1    
    48   23   92 1    
    49   23   93 1    
    50   24   25 am   BACKBONE|DICT|INTERRES
    51   24   94 1    
    52   25   26 2    
    53   25   27 1    
    54   27   28 1    
    55   27   29 1    
    56   27   95 1    
    57   28   96 1    
    58   28   97 1    
    59   28   98 1    
    60   29   30 am   BACKBONE|DICT|INTERRES
    61   29   99 1    
    62   30   31 2    
    63   30   32 1    
    64   32   33 1    
    65   32   34 1    
    66   32  100 1    
    67   33  101 1    
    68   33  102 1    
    69   33  103 1    
    70   34   35 am   BACKBONE|DICT|INTERRES
    71   34  104 1    
    72   35   36 2    
    73   37   38 2    
    74   37   39 am   BACKBONE|DICT|INTERRES
    75   39   40 1    
    76   39  105 1    
    77   40   41 1    
    78   40   42 1    
    79   40  106 1    
    80   41  107 1    
    81   41  108 1    
    82   41  109 1    
    83   42   43 2    
    84   42   44 am   BACKBONE|DICT|INTERRES
    85   44   45 1    
    86   44  110 1    
    87   45   46 1    
    88   45   47 1    
    89   45  111 1    
    90   46  112 1    
    91   46  113 1    
    92   46  114 1    
    93   47   48 2    
    94   47   49 am   BACKBONE|DICT|INTERRES
    95   49   50 1    
    96   49  115 1    
    97   50   51 1    
    98   50   52 1    
    99   50  116 1    
   100   51  117 1    
   101   51  118 1    
   102   51  119 1    
   103   52   53 2    
   104   52   54 am   BACKBONE|DICT|INTERRES
   105   54   55 1    
   106   54  120 1    
   107   55   56 1    
   108   55   57 1    
   109   55  121 1    
   110   56  122 1    
   111   56  123 1    
   112   56  124 1    
   113   57   58 2    
   114   57   59 am   BACKBONE|DICT|INTERRES
   115   59   60 1    
   116   59  125 1    
   117   60   61 1    
   118   60   62 1    
   119   60  126 1    
   120   61  127 1    
   121   61  128 1    
   122   61  129 1    
   123   62   63 2    
   124   62   64 am   BACKBONE|DICT|INTERRES
   125   64   65 1    
   126   64  130 1    
   127   65   66 1    
   128   65   69 1    
   129   65  131 1    
   130   66   67 am   BACKBONE|DICT|INTERRES
   131   66   68 2    
   132   67  132 1    
   133   67  133 1    
   134   69   70 1    
   135   69  134 1    
   136   69  135 1    
   137   70   71 1    
   138   71  136 1    
   139   71  137 1    
@<TRIPOS>SUBSTRUCTURE
     1 UNK         1 GROUP             0       ****    0 ROOT    
