@<TRIPOS>MOLECULE
3R137
137   139    1
SMALL
USER_CHARGES


@<TRIPOS>ATOM
      1 CA         27.5768   -6.7443    0.5935 C.3       0 UNK        -0.2020 
      2 C          27.4425   -5.2418    0.7908 C.2       0 UNK         0.4855 
      3 O          26.8720   -4.8041    1.7901 O.2       0 UNK        -0.5197 
      4 N          27.9646   -4.4496   -0.1551 N.am      1 UNK        -0.4892 
      5 CA         27.9178   -2.9805   -0.1362 C.3       1 UNK         0.0835 
      6 C6         28.9624   -2.3552   -1.0936 C.3       12 UNK        -0.0855 
      7 S7         30.6757   -2.5868   -0.4974 S.3       12 UNK        -0.2931 
      8 C8         31.2244   -4.1252   -1.3098 C.3       12 UNK         0.0378 
      9 C9         31.3409   -3.9742   -2.8187 C.ar      12 UNK        -0.0802 
     10 C10        32.4659   -3.3626   -3.3820 C.ar      12 UNK        -0.0944 
     11 C11        32.5745   -3.2151   -4.7687 C.ar      12 UNK        -0.0787 
     12 C12        31.5480   -3.6917   -5.5897 C.ar      12 UNK        -0.0862 
     13 C13        30.4032   -4.2694   -5.0356 C.ar      12 UNK        -0.0733 
     14 C14        30.3194   -4.4383   -3.6522 C.ar      12 UNK        -0.0832 
     15 C15        29.2240   -4.6344   -5.9261 C.3       12 UNK         0.0240 
     16 S16        27.7734   -3.5794   -5.5798 S.3       12 UNK        -0.2522 
     17 C17        28.4714   -1.8939   -5.7092 C.3       12 UNK        -0.0967 
     18 CA         27.7358   -1.0143   -6.7414 C.3       5 UNK         0.0660 
     19 N          26.3152   -0.8686   -6.4142 N.am      5 UNK        -0.4015 
     20 C          25.4043   -0.1799   -7.1139 C.2       4 UNK         0.4946 
     21 O          25.6469    0.4042   -8.1709 O.2       4 UNK        -0.5353 
     22 CA         24.0031   -0.0666   -6.4948 C.3       4 UNK         0.0277 
     23 CB         23.0991   -1.1957   -7.0126 C.3       4 UNK        -0.1981 
     24 N          23.9859   -0.0616   -5.0258 N.am      4 UNK        -0.4209 
     25 C          24.6455    0.7848   -4.2233 C.2       3 UNK         0.4942 
     26 O          25.4550    1.6184   -4.6303 O.2       3 UNK        -0.5208 
     27 CA         24.3646    0.6934   -2.7130 C.3       3 UNK         0.0250 
     28 CB         22.9726    1.2641   -2.3788 C.3       3 UNK        -0.1990 
     29 N          24.5520   -0.6337   -2.1082 N.am      3 UNK        -0.4232 
     30 C          23.9065   -1.7841   -2.3423 C.2       2 UNK         0.4993 
     31 O          23.0475   -1.9158   -3.2168 O.2       2 UNK        -0.5286 
     32 CA         24.2619   -2.9837   -1.4338 C.3       2 UNK         0.0209 
     33 CB         23.6617   -4.3064   -1.9487 C.3       2 UNK        -0.1931 
     34 N          25.6972   -3.1909   -1.1945 N.am      2 UNK        -0.4546 
     35 C          26.4995   -2.4410   -0.4232 C.2       1 UNK         0.5154 
     36 O          26.1503   -1.3697    0.0746 O.2       1 UNK        -0.5181 
     37 C          28.4774    0.3307   -6.8954 C.2       5 UNK         0.5014 
     38 O          29.4512    0.3870   -7.6489 O.2       5 UNK        -0.5248 
     39 N          28.0050    1.3949   -6.2270 N.am      6 UNK        -0.4434 
     40 CA         28.5497    2.7471   -6.3634 C.3       6 UNK         0.0363 
     41 CB         27.9389    3.6661   -5.2952 C.3       6 UNK        -0.1936 
     42 C          28.3595    3.3470   -7.7679 C.2       6 UNK         0.5081 
     43 O          29.1528    4.2023   -8.1595 O.2       6 UNK        -0.5248 
     44 N          27.3395    2.8795   -8.4999 N.am      7 UNK        -0.4718 
     45 CA         27.0766    3.2423   -9.8906 C.3       7 UNK         0.0273 
     46 CB         25.5839    3.5735  -10.0555 C.3       7 UNK        -0.1935 
     47 C          27.4854    2.1071  -10.8398 C.2       7 UNK         0.5018 
     48 O          28.1448    2.3731  -11.8442 O.2       7 UNK        -0.5186 
     49 N          27.0844    0.8687  -10.5154 N.am      8 UNK        -0.4240 
     50 CA         27.2479   -0.3102  -11.3700 C.3       8 UNK         0.0235 
     51 CB         26.3596   -1.4511  -10.8466 C.3       8 UNK        -0.2000 
     52 C          28.7026   -0.7821  -11.5147 C.2       8 UNK         0.4941 
     53 O          29.0993   -1.1614  -12.6173 O.2       8 UNK        -0.5273 
     54 N          29.4630   -0.7575  -10.4124 N.am      9 UNK        -0.4262 
     55 CA         30.8697   -1.1702  -10.3645 C.3       9 UNK         0.0264 
     56 CB         31.0441   -2.1952   -9.2299 C.3       9 UNK        -0.1955 
     57 C          31.8224    0.0252  -10.1800 C.2       9 UNK         0.5031 
     58 O          33.0369   -0.1685  -10.2442 O.2       9 UNK        -0.5390 
     59 N          31.2644    1.2258   -9.9547 N.am      10 UNK        -0.4204 
     60 CA         31.9432    2.4918   -9.6522 C.3       10 UNK         0.0237 
     61 CB         32.8039    2.9621  -10.8448 C.3       10 UNK        -0.1985 
     62 C          32.7210    2.4608   -8.3194 C.2       10 UNK         0.4970 
     63 O          33.7316    3.1532   -8.1871 O.2       10 UNK        -0.4914 
     64 N          32.2360    1.6696   -7.3531 N.am      11 UNK        -0.4285 
     65 CA         32.8628    1.4614   -6.0350 C.3       11 UNK         0.1007 
     66 C          32.5481    2.5669   -4.9822 C.2       11 UNK         0.5703 
     67 N          31.9274    3.6832   -5.3448 N.am      11 UNK        -0.7361 
     68 O          32.8938    2.4232   -3.8121 O.2       11 UNK        -0.4986 
     69 C69        32.5845    0.0286   -5.5044 C.3       12 UNK        -0.0947 
     70 S70        33.3591   -1.2315   -6.5726 S.3       12 UNK        -0.2240 
     71 C71        33.7969   -2.5379   -5.3774 C.3       12 UNK         0.0194 
     72 H72        28.1103   -6.9912   -0.3242 H         1 UNK         0.0906 
     73 H73        28.1199   -7.1847    1.4293 H         1 UNK         0.0906 
     74 H74        26.5908   -7.2058    0.5471 H         1 UNK         0.0906 
     75 H75        28.4275   -4.8670   -0.9477 H         1 UNK         0.3140 
     76 H76        28.1597   -2.6548    0.8786 H         1 UNK         0.1085 
     77 H77        28.8089   -1.2764   -1.1663 H         1 UNK         0.0836 
     78 H78        28.8476   -2.7338   -2.1091 H         1 UNK         0.0836 
     79 H79        32.1976   -4.4027   -0.9021 H         1 UNK         0.0731 
     80 H80        30.5524   -4.9436   -1.0517 H         1 UNK         0.0731 
     81 H81        33.2521   -2.9948   -2.7367 H         1 UNK         0.1312 
     82 H82        31.6214   -3.5668   -6.6609 H         1 UNK         0.1406 
     83 H83        29.4348   -4.8919   -3.2279 H         1 UNK         0.1631 
     84 H84        28.9550   -5.6793   -5.7659 H         1 UNK         0.0717 
     85 H85        29.4865   -4.5391   -6.9810 H         1 UNK         0.0717 
     86 H86        28.4428   -1.4380   -4.7174 H         1 UNK         0.0934 
     87 H87        29.5261   -1.9531   -5.9775 H         1 UNK         0.0934 
     88 H88        27.7888   -1.5136   -7.7103 H         1 UNK         0.0739 
     89 H89        26.0112   -1.3230   -5.5658 H         1 UNK         0.3093 
     90 H90        23.5850    0.8865   -6.8244 H         1 UNK         0.0818 
     91 H91        22.0707   -1.0667   -6.6745 H         1 UNK         0.0819 
     92 H92        23.0805   -1.2135   -8.1034 H         1 UNK         0.0819 
     93 H93        23.4423   -2.1745   -6.6747 H         1 UNK         0.0819 
     94 H94        23.3988   -0.7554   -4.5641 H         1 UNK         0.3041 
     95 H95        25.1000    1.3367   -2.2266 H         1 UNK         0.0784 
     96 H96        22.8618    2.2764   -2.7700 H         1 UNK         0.0793 
     97 H97        22.1691    0.6622   -2.8046 H         1 UNK         0.0793 
     98 H98        22.8155    1.3156   -1.3013 H         1 UNK         0.0793 
     99 H99        25.2323   -0.6668   -1.3511 H         1 UNK         0.3024 
    100 H100       23.7974   -2.7705   -0.4682 H         1 UNK         0.1171 
    101 H101       24.0678   -4.5791   -2.9237 H         1 UNK         0.0786 
    102 H102       23.8586   -5.1280   -1.2596 H         1 UNK         0.0786 
    103 H103       22.5783   -4.2338   -2.0547 H         1 UNK         0.0786 
    104 H104       26.0879   -4.0406   -1.5743 H         1 UNK         0.2977 
    105 H105       27.1750    1.2997   -5.6481 H         1 UNK         0.3127 
    106 H106       29.6215    2.6802   -6.1824 H         1 UNK         0.0770 
    107 H107       26.8648    3.7911   -5.4379 H         1 UNK         0.0814 
    108 H108       28.3901    4.6585   -5.3319 H         1 UNK         0.0814 
    109 H109       28.1014    3.2729   -4.2916 H         1 UNK         0.0814 
    110 H110       26.7515    2.1535   -8.1051 H         1 UNK         0.2983 
    111 H111       27.6501    4.1297  -10.1686 H         1 UNK         0.0947 
    112 H112       25.3538    3.8362  -11.0890 H         1 UNK         0.0806 
    113 H113       25.2985    4.4228   -9.4346 H         1 UNK         0.0806 
    114 H114       24.9462    2.7317   -9.7819 H         1 UNK         0.0806 
    115 H115       26.5314    0.7377   -9.6686 H         1 UNK         0.3000 
    116 H116       26.8932   -0.0428  -12.3679 H         1 UNK         0.0850 
    117 H117       26.4293   -2.3280  -11.4918 H         1 UNK         0.0810 
    118 H118       25.3109   -1.1544  -10.8160 H         1 UNK         0.0810 
    119 H119       26.6463   -1.7622   -9.8420 H         1 UNK         0.0810 
    120 H120       29.0707   -0.4201   -9.5413 H         1 UNK         0.3040 
    121 H121       31.1572   -1.6574  -11.2984 H         1 UNK         0.0766 
    122 H122       30.8158   -1.7646   -8.2554 H         1 UNK         0.0812 
    123 H123       32.0710   -2.5607   -9.1894 H         1 UNK         0.0812 
    124 H124       30.3979   -3.0610   -9.3737 H         1 UNK         0.0812 
    125 H125       30.2564    1.2565   -9.9102 H         1 UNK         0.3205 
    126 H126       31.1530    3.2301   -9.5195 H         1 UNK         0.0754 
    127 H127       33.1777    3.9738  -10.6824 H         1 UNK         0.0769 
    128 H128       32.2258    2.9771  -11.7688 H         1 UNK         0.0769 
    129 H129       33.6699    2.3181  -11.0002 H         1 UNK         0.0769 
    130 H130       31.3854    1.1459   -7.5281 H         1 UNK         0.2981 
    131 H131       33.9433    1.5342   -6.1726 H         1 UNK         0.0541 
    132 H132       31.6813    3.8437   -6.3077 H         1 UNK         0.3459 
    133 H133       31.7479    4.3912   -4.6509 H         1 UNK         0.3459 
    134 H134       31.5120   -0.1645   -5.4453 H         1 UNK         0.0612 
    135 H135       32.9779   -0.0975   -4.4943 H         1 UNK         0.0612 
    136 H136       34.3941   -3.2929   -5.8900 H         1 UNK         0.0624 
    137 H137       34.4359   -2.1102   -4.6034 H         1 UNK         0.0624 
@<TRIPOS>BOND
     1    1    2 1    
     2    1   72 1    
     3    1   73 1    
     4    1   74 1    
     5    2    3 2    
     6    2    4 am   BACKBONE|DICT|INTERRES
     7    4    5 1    
     8    4   75 1    
     9    5    6 1    
    10    5   35 1    
    11    5   76 1    
    12    6    7 1    
    13    6   77 1    
    14    6   78 1    
    15    7    8 1    
    16    8    9 1    
    17    8   79 1    
    18    8   80 1    
    19    9   10 ar   
    20    9   14 ar   
    21   10   11 ar   
    22   10   81 1    
    23   11   12 ar   
    24   11   71 1    
    25   12   13 ar   
    26   12   82 1    
    27   13   14 ar   
    28   13   15 1    
    29   14   83 1    
    30   15   16 1    
    31   15   84 1    
    32   15   85 1    
    33   16   17 1    
    34   17   18 1    
    35   17   86 1    
    36   17   87 1    
    37   18   19 1    
    38   18   37 1    
    39   18   88 1    
    40   19   20 am   BACKBONE|DICT|INTERRES
    41   19   89 1    
    42   20   21 2    
    43   20   22 1    
    44   22   23 1    
    45   22   24 1    
    46   22   90 1    
    47   23   91 1    
    48   23   92 1    
    49   23   93 1    
    50   24   25 am   BACKBONE|DICT|INTERRES
    51   24   94 1    
    52   25   26 2    
    53   25   27 1    
    54   27   28 1    
    55   27   29 1    
    56   27   95 1    
    57   28   96 1    
    58   28   97 1    
    59   28   98 1    
    60   29   30 am   BACKBONE|DICT|INTERRES
    61   29   99 1    
    62   30   31 2    
    63   30   32 1    
    64   32   33 1    
    65   32   34 1    
    66   32  100 1    
    67   33  101 1    
    68   33  102 1    
    69   33  103 1    
    70   34   35 am   BACKBONE|DICT|INTERRES
    71   34  104 1    
    72   35   36 2    
    73   37   38 2    
    74   37   39 am   BACKBONE|DICT|INTERRES
    75   39   40 1    
    76   39  105 1    
    77   40   41 1    
    78   40   42 1    
    79   40  106 1    
    80   41  107 1    
    81   41  108 1    
    82   41  109 1    
    83   42   43 2    
    84   42   44 am   BACKBONE|DICT|INTERRES
    85   44   45 1    
    86   44  110 1    
    87   45   46 1    
    88   45   47 1    
    89   45  111 1    
    90   46  112 1    
    91   46  113 1    
    92   46  114 1    
    93   47   48 2    
    94   47   49 am   BACKBONE|DICT|INTERRES
    95   49   50 1    
    96   49  115 1    
    97   50   51 1    
    98   50   52 1    
    99   50  116 1    
   100   51  117 1    
   101   51  118 1    
   102   51  119 1    
   103   52   53 2    
   104   52   54 am   BACKBONE|DICT|INTERRES
   105   54   55 1    
   106   54  120 1    
   107   55   56 1    
   108   55   57 1    
   109   55  121 1    
   110   56  122 1    
   111   56  123 1    
   112   56  124 1    
   113   57   58 2    
   114   57   59 am   BACKBONE|DICT|INTERRES
   115   59   60 1    
   116   59  125 1    
   117   60   61 1    
   118   60   62 1    
   119   60  126 1    
   120   61  127 1    
   121   61  128 1    
   122   61  129 1    
   123   62   63 2    
   124   62   64 am   BACKBONE|DICT|INTERRES
   125   64   65 1    
   126   64  130 1    
   127   65   66 1    
   128   65   69 1    
   129   65  131 1    
   130   66   67 am   BACKBONE|DICT|INTERRES
   131   66   68 2    
   132   67  132 1    
   133   67  133 1    
   134   69   70 1    
   135   69  134 1    
   136   69  135 1    
   137   70   71 1    
   138   71  136 1    
   139   71  137 1    
@<TRIPOS>SUBSTRUCTURE
     1 UNK         1 GROUP             0       ****    0 ROOT    
