@<TRIPOS>MOLECULE
3R137
137   139    1
SMALL
USER_CHARGES


@<TRIPOS>ATOM
      1 CA         25.2654   -4.1885    2.3967 C.3       0 UNK        -0.2020 
      2 C          26.5367   -4.7947    1.8078 C.2       0 UNK         0.4855 
      3 O          26.6856   -6.0147    1.8276 O.2       0 UNK        -0.5197 
      4 N          27.4833   -4.0033    1.2823 N.am      1 UNK        -0.4892 
      5 CA         27.4524   -2.5424    1.1177 C.3       1 UNK         0.0835 
      6 C6         28.8579   -1.9656    0.7970 C.3       12 UNK        -0.0855 
      7 S7         29.7625   -2.8655   -0.5132 S.3       12 UNK        -0.2931 
      8 C8         29.5518   -1.7517   -1.9338 C.3       12 UNK         0.0378 
      9 C9         30.0731   -2.3997   -3.2067 C.ar      12 UNK        -0.0802 
     10 C10        31.3126   -2.0313   -3.7385 C.ar      12 UNK        -0.0944 
     11 C11        31.8028   -2.6566   -4.8892 C.ar      12 UNK        -0.0787 
     12 C12        31.0382   -3.6493   -5.5133 C.ar      12 UNK        -0.0862 
     13 C13        29.8004   -4.0317   -4.9854 C.ar      12 UNK        -0.0733 
     14 C14        29.3201   -3.3933   -3.8381 C.ar      12 UNK        -0.0832 
     15 C15        29.0225   -5.1882   -5.6038 C.3       12 UNK         0.0240 
     16 S16        28.0791   -4.7151   -7.0877 S.3       12 UNK        -0.2522 
     17 C17        26.7448   -3.6900   -6.3785 C.3       12 UNK        -0.0967 
     18 CA         26.4931   -2.3835   -7.1680 C.3       5 UNK         0.0660 
     19 N          25.3083   -1.6737   -6.6844 N.am      5 UNK        -0.4015 
     20 C          24.7009   -0.6721   -7.3376 C.2       4 UNK         0.4946 
     21 O          25.0299   -0.2799   -8.4573 O.2       4 UNK        -0.5353 
     22 CA         23.5599    0.0422   -6.5937 C.3       4 UNK         0.0277 
     23 CB         22.2409   -0.7317   -6.7480 C.3       4 UNK        -0.1981 
     24 N          23.8544    0.2419   -5.1716 N.am      4 UNK        -0.4209 
     25 C          24.8361    1.0311   -4.7111 C.2       3 UNK         0.4942 
     26 O          25.5536    1.7192   -5.4349 O.2       3 UNK        -0.5208 
     27 CA         25.0899    1.0264   -3.1947 C.3       3 UNK         0.0250 
     28 CB         24.2386    2.1032   -2.5039 C.3       3 UNK        -0.1990 
     29 N          24.8586   -0.2700   -2.5491 N.am      3 UNK        -0.4232 
     30 C          25.5044   -1.4069   -2.8424 C.2       2 UNK         0.4993 
     31 O          26.3432   -1.5079   -3.7408 O.2       2 UNK        -0.5286 
     32 CA         25.1488   -2.6380   -1.9897 C.3       2 UNK         0.0209 
     33 CB         25.0130   -3.9025   -2.8563 C.3       2 UNK        -0.1931 
     34 N          26.1372   -2.8842   -0.9368 N.am      2 UNK        -0.4546 
     35 C          26.3949   -2.0699    0.0974 C.2       1 UNK         0.5154 
     36 O          25.8055   -1.0071    0.2942 O.2       1 UNK        -0.5181 
     37 C          27.7145   -1.4468   -7.1765 C.2       5 UNK         0.5014 
     38 O          28.4057   -1.3814   -8.1927 O.2       5 UNK        -0.5248 
     39 N          27.9179   -0.6979   -6.0808 N.am      6 UNK        -0.4434 
     40 CA         28.9815    0.3018   -5.9540 C.3       6 UNK         0.0363 
     41 CB         28.9420    0.9468   -4.5610 C.3       6 UNK        -0.1936 
     42 C          28.9190    1.3870   -7.0404 C.2       6 UNK         0.5081 
     43 O          29.9556    1.7313   -7.6046 O.2       6 UNK        -0.5248 
     44 N          27.7095    1.8813   -7.3373 N.am      7 UNK        -0.4718 
     45 CA         27.4448    2.8323   -8.4167 C.3       7 UNK         0.0273 
     46 CB         26.0008    3.3481   -8.3117 C.3       7 UNK        -0.1935 
     47 C          27.7151    2.2397   -9.8091 C.2       7 UNK         0.5018 
     48 O          28.3796    2.8900  -10.6160 O.2       7 UNK        -0.5186 
     49 N          27.2176    1.0193  -10.0610 N.am      8 UNK        -0.4240 
     50 CA         27.3862    0.3005  -11.3281 C.3       8 UNK         0.0235 
     51 CB         26.4955   -0.9522  -11.3377 C.3       8 UNK        -0.2000 
     52 C          28.8477   -0.0722  -11.6283 C.2       8 UNK         0.4941 
     53 O          29.2963    0.1063  -12.7613 O.2       8 UNK        -0.5273 
     54 N          29.5643   -0.5704  -10.6127 N.am      9 UNK        -0.4262 
     55 CA         30.9753   -0.9549  -10.6982 C.3       9 UNK         0.0264 
     56 CB         31.2658   -2.0043   -9.6133 C.3       9 UNK        -0.1955 
     57 C          31.9494    0.2350  -10.5916 C.2       9 UNK         0.5031 
     58 O          33.1378    0.0485  -10.8581 O.2       9 UNK        -0.5390 
     59 N          31.4430    1.4189  -10.2127 N.am      10 UNK        -0.4204 
     60 CA         32.1682    2.6736   -9.9750 C.3       10 UNK         0.0237 
     61 CB         32.7900    3.2153  -11.2802 C.3       10 UNK        -0.1985 
     62 C          33.1784    2.5574   -8.8158 C.2       10 UNK         0.4970 
     63 O          34.3229    2.9987   -8.9387 O.2       10 UNK        -0.4914 
     64 N          32.7235    1.9613   -7.7086 N.am      11 UNK        -0.4285 
     65 CA         33.4910    1.7595   -6.4699 C.3       11 UNK         0.1007 
     66 C          33.5299    3.0089   -5.5440 C.2       11 UNK         0.5703 
     67 N          32.7424    4.0495   -5.7921 N.am      11 UNK        -0.7361 
     68 O          34.2997    3.0390   -4.5867 O.2       11 UNK        -0.4986 
     69 C69        33.0040    0.5069   -5.6937 C.3       12 UNK        -0.0947 
     70 S70        33.1287   -1.0116   -6.6949 S.3       12 UNK        -0.2240 
     71 C71        33.1853   -2.3081   -5.4229 C.3       12 UNK         0.0194 
     72 H72        25.4842   -3.3433    3.0476 H         1 UNK         0.0906 
     73 H73        24.5913   -3.8615    1.6057 H         1 UNK         0.0906 
     74 H74        24.7363   -4.9293    2.9959 H         1 UNK         0.0906 
     75 H75        28.3171   -4.4382    0.9102 H         1 UNK         0.3140 
     76 H76        27.1564   -2.1116    2.0761 H         1 UNK         0.1085 
     77 H77        28.8050   -0.9016    0.5559 H         1 UNK         0.0836 
     78 H78        29.4721   -2.0209    1.6973 H         1 UNK         0.0836 
     79 H79        30.0706   -0.8121   -1.7372 H         1 UNK         0.0731 
     80 H80        28.4971   -1.5058   -2.0565 H         1 UNK         0.0731 
     81 H81        31.9062   -1.2735   -3.2459 H         1 UNK         0.1312 
     82 H82        31.4199   -4.1461   -6.3949 H         1 UNK         0.1406 
     83 H83        28.3717   -3.6871   -3.4108 H         1 UNK         0.1631 
     84 H84        28.3428   -5.6292   -4.8727 H         1 UNK         0.0717 
     85 H85        29.7203   -5.9809   -5.8775 H         1 UNK         0.0717 
     86 H86        25.8377   -4.2962   -6.3680 H         1 UNK         0.0934 
     87 H87        26.9640   -3.4655   -5.3365 H         1 UNK         0.0934 
     88 H88        26.2947   -2.6618   -8.2055 H         1 UNK         0.0739 
     89 H89        25.0180   -1.8794   -5.7400 H         1 UNK         0.3093 
     90 H90        23.4340    1.0260   -7.0514 H         1 UNK         0.0818 
     91 H91        21.4088   -0.1908   -6.2970 H         1 UNK         0.0819 
     92 H92        21.9967   -0.8768   -7.8015 H         1 UNK         0.0819 
     93 H93        22.2903   -1.7187   -6.2864 H         1 UNK         0.0819 
     94 H94        23.2988   -0.2744   -4.5052 H         1 UNK         0.3041 
     95 H95        26.1409    1.2772   -3.0408 H         1 UNK         0.0784 
     96 H96        24.4122    3.0835   -2.9505 H         1 UNK         0.0793 
     97 H97        23.1718    1.8914   -2.5863 H         1 UNK         0.0793 
     98 H98        24.4849    2.1845   -1.4448 H         1 UNK         0.0793 
     99 H99        24.2263   -0.2690   -1.7609 H         1 UNK         0.3024 
    100 H100       24.1832   -2.4589   -1.5115 H         1 UNK         0.1171 
    101 H101       24.6331   -4.7411   -2.2724 H         1 UNK         0.0786 
    102 H102       24.3162   -3.7423   -3.6801 H         1 UNK         0.0786 
    103 H103       25.9666   -4.2051   -3.2880 H         1 UNK         0.0786 
    104 H104       26.6781   -3.7338   -1.0090 H         1 UNK         0.2977 
    105 H105       27.3213   -0.8467   -5.2707 H         1 UNK         0.3127 
    106 H106       29.9260   -0.2340   -6.0650 H         1 UNK         0.0770 
    107 H107       28.0650    1.5804   -4.4333 H         1 UNK         0.0814 
    108 H108       29.8195    1.5738   -4.3991 H         1 UNK         0.0814 
    109 H109       28.9260    0.1972   -3.7743 H         1 UNK         0.0814 
    110 H110       26.9138    1.5985   -6.7698 H         1 UNK         0.2983 
    111 H111       28.1192    3.6811   -8.2834 H         1 UNK         0.0947 
    112 H112       25.7830    4.0669   -9.1028 H         1 UNK         0.0806 
    113 H113       25.8296    3.8511   -7.3597 H         1 UNK         0.0806 
    114 H114       25.2747    2.5385   -8.3946 H         1 UNK         0.0806 
    115 H115       26.6587    0.5600   -9.3474 H         1 UNK         0.3000 
    116 H116       27.0464    0.9619  -12.1280 H         1 UNK         0.0850 
    117 H117       26.5963   -1.4979  -12.2768 H         1 UNK         0.0810 
    118 H118       25.4431   -0.6903  -11.2261 H         1 UNK         0.0810 
    119 H119       26.7555   -1.6379  -10.5304 H         1 UNK         0.0810 
    120 H120       29.1034   -0.7362   -9.7163 H         1 UNK         0.3040 
    121 H121       31.1505   -1.4226  -11.6693 H         1 UNK         0.0766 
    122 H122       31.0489   -1.6168   -8.6178 H         1 UNK         0.0812 
    123 H123       32.3125   -2.3107   -9.6262 H         1 UNK         0.0812 
    124 H124       30.6616   -2.9002   -9.7562 H         1 UNK         0.0812 
    125 H125       30.4585    1.4442   -9.9796 H         1 UNK         0.3205 
    126 H126       31.4166    3.3943   -9.6489 H         1 UNK         0.0754 
    127 H127       33.2162    4.2073  -11.1262 H         1 UNK         0.0769 
    128 H128       32.0412    3.3033  -12.0675 H         1 UNK         0.0769 
    129 H129       33.5901    2.5723  -11.6480 H         1 UNK         0.0769 
    130 H130       31.7420    1.6899   -7.6772 H         1 UNK         0.2981 
    131 H131       34.5292    1.5756   -6.7530 H         1 UNK         0.0541 
    132 H132       32.1030    4.0303   -6.5699 H         1 UNK         0.3459 
    133 H133       32.7826    4.8550   -5.1881 H         1 UNK         0.3459 
    134 H134       31.9715    0.6315   -5.3678 H         1 UNK         0.0612 
    135 H135       33.5983    0.3688   -4.7887 H         1 UNK         0.0612 
    136 H136       33.8466   -2.0041   -4.6103 H         1 UNK         0.0624 
    137 H137       33.6401   -3.1978   -5.8608 H         1 UNK         0.0624 
@<TRIPOS>BOND
     1    1    2 1    
     2    1   72 1    
     3    1   73 1    
     4    1   74 1    
     5    2    3 2    
     6    2    4 am   BACKBONE|DICT|INTERRES
     7    4    5 1    
     8    4   75 1    
     9    5    6 1    
    10    5   35 1    
    11    5   76 1    
    12    6    7 1    
    13    6   77 1    
    14    6   78 1    
    15    7    8 1    
    16    8    9 1    
    17    8   79 1    
    18    8   80 1    
    19    9   10 ar   
    20    9   14 ar   
    21   10   11 ar   
    22   10   81 1    
    23   11   12 ar   
    24   11   71 1    
    25   12   13 ar   
    26   12   82 1    
    27   13   14 ar   
    28   13   15 1    
    29   14   83 1    
    30   15   16 1    
    31   15   84 1    
    32   15   85 1    
    33   16   17 1    
    34   17   18 1    
    35   17   86 1    
    36   17   87 1    
    37   18   19 1    
    38   18   37 1    
    39   18   88 1    
    40   19   20 am   BACKBONE|DICT|INTERRES
    41   19   89 1    
    42   20   21 2    
    43   20   22 1    
    44   22   23 1    
    45   22   24 1    
    46   22   90 1    
    47   23   91 1    
    48   23   92 1    
    49   23   93 1    
    50   24   25 am   BACKBONE|DICT|INTERRES
    51   24   94 1    
    52   25   26 2    
    53   25   27 1    
    54   27   28 1    
    55   27   29 1    
    56   27   95 1    
    57   28   96 1    
    58   28   97 1    
    59   28   98 1    
    60   29   30 am   BACKBONE|DICT|INTERRES
    61   29   99 1    
    62   30   31 2    
    63   30   32 1    
    64   32   33 1    
    65   32   34 1    
    66   32  100 1    
    67   33  101 1    
    68   33  102 1    
    69   33  103 1    
    70   34   35 am   BACKBONE|DICT|INTERRES
    71   34  104 1    
    72   35   36 2    
    73   37   38 2    
    74   37   39 am   BACKBONE|DICT|INTERRES
    75   39   40 1    
    76   39  105 1    
    77   40   41 1    
    78   40   42 1    
    79   40  106 1    
    80   41  107 1    
    81   41  108 1    
    82   41  109 1    
    83   42   43 2    
    84   42   44 am   BACKBONE|DICT|INTERRES
    85   44   45 1    
    86   44  110 1    
    87   45   46 1    
    88   45   47 1    
    89   45  111 1    
    90   46  112 1    
    91   46  113 1    
    92   46  114 1    
    93   47   48 2    
    94   47   49 am   BACKBONE|DICT|INTERRES
    95   49   50 1    
    96   49  115 1    
    97   50   51 1    
    98   50   52 1    
    99   50  116 1    
   100   51  117 1    
   101   51  118 1    
   102   51  119 1    
   103   52   53 2    
   104   52   54 am   BACKBONE|DICT|INTERRES
   105   54   55 1    
   106   54  120 1    
   107   55   56 1    
   108   55   57 1    
   109   55  121 1    
   110   56  122 1    
   111   56  123 1    
   112   56  124 1    
   113   57   58 2    
   114   57   59 am   BACKBONE|DICT|INTERRES
   115   59   60 1    
   116   59  125 1    
   117   60   61 1    
   118   60   62 1    
   119   60  126 1    
   120   61  127 1    
   121   61  128 1    
   122   61  129 1    
   123   62   63 2    
   124   62   64 am   BACKBONE|DICT|INTERRES
   125   64   65 1    
   126   64  130 1    
   127   65   66 1    
   128   65   69 1    
   129   65  131 1    
   130   66   67 am   BACKBONE|DICT|INTERRES
   131   66   68 2    
   132   67  132 1    
   133   67  133 1    
   134   69   70 1    
   135   69  134 1    
   136   69  135 1    
   137   70   71 1    
   138   71  136 1    
   139   71  137 1    
@<TRIPOS>SUBSTRUCTURE
     1 UNK         1 GROUP             0       ****    0 ROOT    
