@<TRIPOS>MOLECULE
3R137
137   139    1
SMALL
USER_CHARGES


@<TRIPOS>ATOM
      1 CA         26.7242   -5.0948   -1.1861 C.3       0 UNK        -0.2020 
      2 C          27.3198   -3.7897   -0.6809 C.2       0 UNK         0.4855 
      3 O          26.8671   -3.2603    0.3348 O.2       0 UNK        -0.5197 
      4 N          28.3209   -3.2513   -1.3878 N.am      1 UNK        -0.4892 
      5 CA         28.9961   -1.9836   -1.0857 C.3       1 UNK         0.0835 
      6 C6         30.4488   -1.9769   -1.6312 C.3       12 UNK        -0.0855 
      7 S7         31.5863   -3.0515   -0.6785 S.3       12 UNK        -0.2931 
      8 C8         31.4022   -4.7205   -1.4051 C.3       12 UNK         0.0378 
      9 C9         31.3980   -4.7147   -2.9268 C.ar      12 UNK        -0.0802 
     10 C10        32.5151   -4.2710   -3.6405 C.ar      12 UNK        -0.0944 
     11 C11        32.4710   -4.1747   -5.0348 C.ar      12 UNK        -0.0787 
     12 C12        31.3030   -4.5311   -5.7144 C.ar      12 UNK        -0.0862 
     13 C13        30.1814   -4.9740   -5.0097 C.ar      12 UNK        -0.0733 
     14 C14        30.2495   -5.1037   -3.6202 C.ar      12 UNK        -0.0832 
     15 C15        28.8713   -5.2253   -5.7427 C.3       12 UNK         0.0240 
     16 S16        27.4877   -4.2486   -5.0556 S.3       12 UNK        -0.2522 
     17 C17        28.1596   -2.5470   -4.9934 C.3       12 UNK        -0.0967 
     18 CA         27.8298   -1.7149   -6.2484 C.3       5 UNK         0.0660 
     19 N          26.3929   -1.6609   -6.5135 N.am      5 UNK        -0.4015 
     20 C          25.8570   -1.2039   -7.6512 C.2       4 UNK         0.4946 
     21 O          26.5278   -0.8101   -8.6067 O.2       4 UNK        -0.5353 
     22 CA         24.3219   -1.1166   -7.7169 C.3       4 UNK         0.0277 
     23 CB         23.7437   -2.3950   -8.3425 C.3       4 UNK        -0.1981 
     24 N          23.6753   -0.8669   -6.4208 N.am      4 UNK        -0.4209 
     25 C          23.9298    0.1753   -5.6153 C.2       3 UNK         0.4942 
     26 O          24.7549    1.0499   -5.8823 O.2       3 UNK        -0.5208 
     27 CA         23.1714    0.2648   -4.2787 C.3       3 UNK         0.0250 
     28 CB         22.2655   -0.9508   -3.9720 C.3       3 UNK        -0.1990 
     29 N          24.0898    0.5303   -3.1630 N.am      3 UNK        -0.4232 
     30 C          25.0963   -0.2523   -2.7433 C.2       2 UNK         0.4993 
     31 O          25.3822   -1.3342   -3.2630 O.2       2 UNK        -0.5286 
     32 CA         25.8938    0.2663   -1.5289 C.3       2 UNK         0.0209 
     33 CB         24.9714    0.5401   -0.3255 C.3       2 UNK        -0.1931 
     34 N          26.9171   -0.6897   -1.1036 N.am      2 UNK        -0.4546 
     35 C          28.1501   -0.7995   -1.6110 C.2       1 UNK         0.5154 
     36 O          28.6033   -0.0385   -2.4665 O.2       1 UNK        -0.5181 
     37 C          28.4621   -0.3074   -6.1584 C.2       5 UNK         0.5014 
     38 O          29.6273   -0.1485   -6.5206 O.2       5 UNK        -0.5248 
     39 N          27.6892    0.6949   -5.7202 N.am      6 UNK        -0.4434 
     40 CA         28.1034    2.0954   -5.7008 C.3       6 UNK         0.0363 
     41 CB         27.4747    2.8035   -4.4899 C.3       6 UNK        -0.1936 
     42 C          27.7166    2.8048   -7.0058 C.2       6 UNK         0.5081 
     43 O          28.5221    3.5659   -7.5385 O.2       6 UNK        -0.5248 
     44 N          26.4920    2.5611   -7.4900 N.am      7 UNK        -0.4718 
     45 CA         25.9078    3.2553   -8.6378 C.3       7 UNK         0.0273 
     46 CB         24.3820    3.0701   -8.6253 C.3       7 UNK        -0.1935 
     47 C          26.4925    2.8327   -9.9946 C.2       7 UNK         0.5018 
     48 O          26.6989    3.7013  -10.8434 O.2       7 UNK        -0.5186 
     49 N          26.7212    1.5266  -10.1909 N.am      8 UNK        -0.4240 
     50 CA         27.1756    0.9566  -11.4609 C.3       8 UNK         0.0235 
     51 CB         26.2460   -0.1948  -11.8844 C.3       8 UNK        -0.2000 
     52 C          28.6313    0.4855  -11.3782 C.2       8 UNK         0.4941 
     53 O          29.4211    0.8494  -12.2505 O.2       8 UNK        -0.5273 
     54 N          28.9729   -0.3104  -10.3516 N.am      9 UNK        -0.4262 
     55 CA         30.3240   -0.8746  -10.1988 C.3       9 UNK         0.0264 
     56 CB         30.2884   -2.1301   -9.3116 C.3       9 UNK        -0.1955 
     57 C          31.3647    0.1394   -9.6840 C.2       9 UNK         0.5031 
     58 O          32.5588   -0.0824   -9.8897 O.2       9 UNK        -0.5390 
     59 N          30.8991    1.2284   -9.0520 N.am      10 UNK        -0.4204 
     60 CA         31.6790    2.3484   -8.5083 C.3       10 UNK         0.0237 
     61 CB         32.3845    3.1281   -9.6395 C.3       10 UNK        -0.1985 
     62 C          32.6314    1.9501   -7.3627 C.2       10 UNK         0.4970 
     63 O          33.7007    2.5472   -7.2227 O.2       10 UNK        -0.4914 
     64 N          32.2214    0.9697   -6.5495 N.am      11 UNK        -0.4285 
     65 CA         32.9668    0.4796   -5.3791 C.3       11 UNK         0.1007 
     66 C          32.6955    1.2866   -4.0756 C.2       11 UNK         0.5703 
     67 N          31.8289    2.2929   -4.0781 N.am      11 UNK        -0.7361 
     68 O          33.3006    1.0082   -3.0431 O.2       11 UNK        -0.4986 
     69 C69        32.7414   -1.0378   -5.1619 C.3       12 UNK        -0.0947 
     70 S70        33.2696   -2.0334   -6.5980 S.3       12 UNK        -0.2240 
     71 C71        33.6617   -3.6254   -5.8056 C.3       12 UNK         0.0194 
     72 H72        25.6452   -4.9928   -1.2998 H         1 UNK         0.0906 
     73 H73        27.1347   -5.3880   -2.1513 H         1 UNK         0.0906 
     74 H74        26.9181   -5.8964   -0.4741 H         1 UNK         0.0906 
     75 H75        28.6134   -3.6942   -2.2454 H         1 UNK         0.3140 
     76 H76        29.0517   -1.8605   -0.0015 H         1 UNK         0.1085 
     77 H77        30.4754   -2.2236   -2.6929 H         1 UNK         0.0836 
     78 H78        30.8697   -0.9715   -1.5624 H         1 UNK         0.0836 
     79 H79        30.4878   -5.1703   -1.0154 H         1 UNK         0.0731 
     80 H80        32.2212   -5.3494   -1.0535 H         1 UNK         0.0731 
     81 H81        33.4021   -3.9621   -3.1043 H         1 UNK         0.1312 
     82 H82        31.2579   -4.4168   -6.7891 H         1 UNK         0.1406 
     83 H83        29.3838   -5.4570   -3.0792 H         1 UNK         0.1631 
     84 H84        28.6239   -6.2858   -5.6833 H         1 UNK         0.0717 
     85 H85        28.9679   -4.9872   -6.8032 H         1 UNK         0.0717 
     86 H86        27.7337   -2.0674   -4.1139 H         1 UNK         0.0934 
     87 H87        29.2365   -2.5637   -4.8244 H         1 UNK         0.0934 
     88 H88        28.2868   -2.2185   -7.1005 H         1 UNK         0.0739 
     89 H89        25.7863   -1.9530   -5.7590 H         1 UNK         0.3093 
     90 H90        24.0758   -0.2798   -8.3716 H         1 UNK         0.0818 
     91 H91        22.6676   -2.3117   -8.4957 H         1 UNK         0.0819 
     92 H92        24.1928   -2.5887   -9.3180 H         1 UNK         0.0819 
     93 H93        23.9291   -3.2706   -7.7190 H         1 UNK         0.0819 
     94 H94        22.9906   -1.5446   -6.1180 H         1 UNK         0.3041 
     95 H95        22.5278    1.1419   -4.3609 H         1 UNK         0.0784 
     96 H96        21.4897   -1.0703   -4.7294 H         1 UNK         0.0793 
     97 H97        22.8277   -1.8839   -3.9174 H         1 UNK         0.0793 
     98 H98        21.7545   -0.8227   -3.0176 H         1 UNK         0.0793 
     99 H99        23.9512    1.4164   -2.6981 H         1 UNK         0.3024 
    100 H100       26.3795    1.1996   -1.8225 H         1 UNK         0.1171 
    101 H101       24.2489    1.3279   -0.5404 H         1 UNK         0.0786 
    102 H102       24.4100   -0.3503   -0.0387 H         1 UNK         0.0786 
    103 H103       25.5432    0.8664    0.5437 H         1 UNK         0.0786 
    104 H104       26.6195   -1.4213   -0.4659 H         1 UNK         0.2977 
    105 H105       26.7175    0.5097   -5.4999 H         1 UNK         0.3127 
    106 H106       29.1879    2.1585   -5.5933 H         1 UNK         0.0770 
    107 H107       26.3854    2.7557   -4.5073 H         1 UNK         0.0814 
    108 H108       27.7554    3.8572   -4.4658 H         1 UNK         0.0814 
    109 H109       27.8162    2.3579   -3.5559 H         1 UNK         0.0814 
    110 H110       25.8716    1.9512   -6.9596 H         1 UNK         0.2983 
    111 H111       26.1116    4.3220   -8.5177 H         1 UNK         0.0947 
    112 H112       23.9150    3.6219   -9.4422 H         1 UNK         0.0806 
    113 H113       23.9458    3.4364   -7.6957 H         1 UNK         0.0806 
    114 H114       24.0999    2.0238   -8.7362 H         1 UNK         0.0806 
    115 H115       26.5528    0.8649   -9.4371 H         1 UNK         0.3000 
    116 H116       27.1270    1.7100  -12.2504 H         1 UNK         0.0850 
    117 H117       26.5434   -0.5953  -12.8545 H         1 UNK         0.0810 
    118 H118       25.2146    0.1454  -11.9778 H         1 UNK         0.0810 
    119 H119       26.2605   -1.0227  -11.1760 H         1 UNK         0.0810 
    120 H120       28.2609   -0.5853   -9.6813 H         1 UNK         0.3040 
    121 H121       30.6583   -1.1963  -11.1879 H         1 UNK         0.0766 
    122 H122       30.1924   -1.8825   -8.2578 H         1 UNK         0.0812 
    123 H123       31.2184   -2.6913   -9.4116 H         1 UNK         0.0812 
    124 H124       29.4733   -2.8001   -9.5851 H         1 UNK         0.0812 
    125 H125       29.9007    1.2840   -8.9099 H         1 UNK         0.3205 
    126 H126       30.9578    3.0282   -8.0577 H         1 UNK         0.0754 
    127 H127       32.8346    4.0467   -9.2612 H         1 UNK         0.0769 
    128 H128       31.6810    3.4128  -10.4220 H         1 UNK         0.0769 
    129 H129       33.1804    2.5423  -10.1004 H         1 UNK         0.0769 
    130 H130       31.3113    0.5371   -6.6987 H         1 UNK         0.2981 
    131 H131       34.0320    0.6125   -5.5772 H         1 UNK         0.0541 
    132 H132       31.3411    2.5408   -4.9217 H         1 UNK         0.3459 
    133 H133       31.6692    2.8075   -3.2269 H         1 UNK         0.3459 
    134 H134       31.6889   -1.2469   -4.9616 H         1 UNK         0.0612 
    135 H135       33.2959   -1.3822   -4.2871 H         1 UNK         0.0612 
    136 H136       33.9576   -4.3415   -6.5732 H         1 UNK         0.0624 
    137 H137       34.5256   -3.4950   -5.1520 H         1 UNK         0.0624 
@<TRIPOS>BOND
     1    1    2 1    
     2    1   72 1    
     3    1   73 1    
     4    1   74 1    
     5    2    3 2    
     6    2    4 am   BACKBONE|DICT|INTERRES
     7    4    5 1    
     8    4   75 1    
     9    5    6 1    
    10    5   35 1    
    11    5   76 1    
    12    6    7 1    
    13    6   77 1    
    14    6   78 1    
    15    7    8 1    
    16    8    9 1    
    17    8   79 1    
    18    8   80 1    
    19    9   10 ar   
    20    9   14 ar   
    21   10   11 ar   
    22   10   81 1    
    23   11   12 ar   
    24   11   71 1    
    25   12   13 ar   
    26   12   82 1    
    27   13   14 ar   
    28   13   15 1    
    29   14   83 1    
    30   15   16 1    
    31   15   84 1    
    32   15   85 1    
    33   16   17 1    
    34   17   18 1    
    35   17   86 1    
    36   17   87 1    
    37   18   19 1    
    38   18   37 1    
    39   18   88 1    
    40   19   20 am   BACKBONE|DICT|INTERRES
    41   19   89 1    
    42   20   21 2    
    43   20   22 1    
    44   22   23 1    
    45   22   24 1    
    46   22   90 1    
    47   23   91 1    
    48   23   92 1    
    49   23   93 1    
    50   24   25 am   BACKBONE|DICT|INTERRES
    51   24   94 1    
    52   25   26 2    
    53   25   27 1    
    54   27   28 1    
    55   27   29 1    
    56   27   95 1    
    57   28   96 1    
    58   28   97 1    
    59   28   98 1    
    60   29   30 am   BACKBONE|DICT|INTERRES
    61   29   99 1    
    62   30   31 2    
    63   30   32 1    
    64   32   33 1    
    65   32   34 1    
    66   32  100 1    
    67   33  101 1    
    68   33  102 1    
    69   33  103 1    
    70   34   35 am   BACKBONE|DICT|INTERRES
    71   34  104 1    
    72   35   36 2    
    73   37   38 2    
    74   37   39 am   BACKBONE|DICT|INTERRES
    75   39   40 1    
    76   39  105 1    
    77   40   41 1    
    78   40   42 1    
    79   40  106 1    
    80   41  107 1    
    81   41  108 1    
    82   41  109 1    
    83   42   43 2    
    84   42   44 am   BACKBONE|DICT|INTERRES
    85   44   45 1    
    86   44  110 1    
    87   45   46 1    
    88   45   47 1    
    89   45  111 1    
    90   46  112 1    
    91   46  113 1    
    92   46  114 1    
    93   47   48 2    
    94   47   49 am   BACKBONE|DICT|INTERRES
    95   49   50 1    
    96   49  115 1    
    97   50   51 1    
    98   50   52 1    
    99   50  116 1    
   100   51  117 1    
   101   51  118 1    
   102   51  119 1    
   103   52   53 2    
   104   52   54 am   BACKBONE|DICT|INTERRES
   105   54   55 1    
   106   54  120 1    
   107   55   56 1    
   108   55   57 1    
   109   55  121 1    
   110   56  122 1    
   111   56  123 1    
   112   56  124 1    
   113   57   58 2    
   114   57   59 am   BACKBONE|DICT|INTERRES
   115   59   60 1    
   116   59  125 1    
   117   60   61 1    
   118   60   62 1    
   119   60  126 1    
   120   61  127 1    
   121   61  128 1    
   122   61  129 1    
   123   62   63 2    
   124   62   64 am   BACKBONE|DICT|INTERRES
   125   64   65 1    
   126   64  130 1    
   127   65   66 1    
   128   65   69 1    
   129   65  131 1    
   130   66   67 am   BACKBONE|DICT|INTERRES
   131   66   68 2    
   132   67  132 1    
   133   67  133 1    
   134   69   70 1    
   135   69  134 1    
   136   69  135 1    
   137   70   71 1    
   138   71  136 1    
   139   71  137 1    
@<TRIPOS>SUBSTRUCTURE
     1 UNK         1 GROUP             0       ****    0 ROOT    
