@<TRIPOS>MOLECULE
3R137
137   139    1
SMALL
USER_CHARGES


@<TRIPOS>ATOM
      1 CA         28.7221   -5.5191   -8.4015 C.3       0 UNK        -0.2020 
      2 C          28.2778   -5.7955   -6.9729 C.2       0 UNK         0.4855 
      3 O          27.6943   -6.8465   -6.7079 O.2       0 UNK        -0.5197 
      4 N          28.5508   -4.8625   -6.0504 N.am      1 UNK        -0.4892 
      5 CA         28.2244   -4.9724   -4.6195 C.3       1 UNK         0.0835 
      6 C6         28.9980   -3.9290   -3.7720 C.3       12 UNK        -0.0855 
      7 S7         30.8047   -4.1235   -3.9544 S.3       12 UNK        -0.2931 
      8 C8         31.4490   -3.2087   -2.5163 C.3       12 UNK         0.0378 
      9 C9         31.1968   -1.7107   -2.6225 C.ar      12 UNK        -0.0802 
     10 C10        31.7968   -0.9647   -3.6411 C.ar      12 UNK        -0.0944 
     11 C11        31.5669    0.4112   -3.7478 C.ar      12 UNK        -0.0787 
     12 C12        30.7237    1.0399   -2.8289 C.ar      12 UNK        -0.0862 
     13 C13        30.0930    0.2984   -1.8267 C.ar      12 UNK        -0.0733 
     14 C14        30.3526   -1.0714   -1.7112 C.ar      12 UNK        -0.0832 
     15 C15        29.0454    0.9519   -0.9377 C.3       12 UNK         0.0240 
     16 S16        27.5614    1.4642   -1.8774 S.3       12 UNK        -0.2522 
     17 C17        27.2145    0.0158   -2.9496 C.3       12 UNK        -0.0967 
     18 CA         26.6903    0.3482   -4.3683 C.3       5 UNK         0.0660 
     19 N          25.2868    0.7661   -4.3347 N.am      5 UNK        -0.4015 
     20 C          24.4999    0.8769   -5.4110 C.2       4 UNK         0.4946 
     21 O          24.9164    0.7886   -6.5676 O.2       4 UNK        -0.5353 
     22 CA         22.9960    1.0463   -5.1364 C.3       4 UNK         0.0277 
     23 CB         22.1930    1.3679   -6.4102 C.3       4 UNK        -0.1981 
     24 N          22.4860   -0.1924   -4.5474 N.am      4 UNK        -0.4209 
     25 C          22.5167   -0.4891   -3.2405 C.2       3 UNK         0.4942 
     26 O          22.8360    0.3160   -2.3648 O.2       3 UNK        -0.5208 
     27 CA         22.2128   -1.9497   -2.8576 C.3       3 UNK         0.0250 
     28 CB         20.6971   -2.1795   -2.7437 C.3       3 UNK        -0.1990 
     29 N          22.7935   -2.9207   -3.7956 N.am      3 UNK        -0.4232 
     30 C          24.1074   -3.0535   -4.0356 C.2       2 UNK         0.4993 
     31 O          24.9744   -2.4047   -3.4487 O.2       2 UNK        -0.5286 
     32 CA         24.5039   -4.0372   -5.1519 C.3       2 UNK         0.0209 
     33 CB         24.0041   -3.5287   -6.5170 C.3       2 UNK        -0.1931 
     34 N          25.9542   -4.2382   -5.2368 N.am      2 UNK        -0.4546 
     35 C          26.7052   -4.8983   -4.3423 C.2       1 UNK         0.5154 
     36 O          26.2452   -5.4588   -3.3456 O.2       1 UNK        -0.5181 
     37 C          27.6036    1.3022   -5.1725 C.2       5 UNK         0.5014 
     38 O          28.4950    0.8431   -5.8898 O.2       5 UNK        -0.5248 
     39 N          27.3167    2.6092   -5.0947 N.am      6 UNK        -0.4434 
     40 CA         27.9914    3.6592   -5.8585 C.3       6 UNK         0.0363 
     41 CB         27.6581    5.0258   -5.2398 C.3       6 UNK        -0.1936 
     42 C          27.6430    3.6463   -7.3584 C.2       6 UNK         0.5081 
     43 O          28.4430    4.1347   -8.1556 O.2       6 UNK        -0.5248 
     44 N          26.4750    3.0956   -7.7237 N.am      7 UNK        -0.4718 
     45 CA         26.0684    2.8929   -9.1168 C.3       7 UNK         0.0273 
     46 CB         24.5352    2.8603   -9.2225 C.3       7 UNK        -0.1935 
     47 C          26.6859    1.6101   -9.6940 C.2       7 UNK         0.5018 
     48 O          27.0397    1.5956  -10.8734 O.2       7 UNK        -0.5186 
     49 N          26.8287    0.5716   -8.8538 N.am      8 UNK        -0.4240 
     50 CA         27.5579   -0.6608   -9.1706 C.3       8 UNK         0.0235 
     51 CB         27.3322   -1.7057   -8.0659 C.3       8 UNK        -0.2000 
     52 C          29.0578   -0.3999   -9.3976 C.2       8 UNK         0.4941 
     53 O          29.6196   -0.9194  -10.3619 O.2       8 UNK        -0.5273 
     54 N          29.6547    0.4356   -8.5315 N.am      9 UNK        -0.4262 
     55 CA         30.9769    1.0637   -8.6687 C.3       9 UNK         0.0264 
     56 CB         30.9834    2.0411   -9.8634 C.3       9 UNK        -0.1955 
     57 C          32.1702    0.0864   -8.7141 C.2       9 UNK         0.5031 
     58 O          33.2340    0.4496   -9.2202 O.2       9 UNK        -0.5390 
     59 N          32.0040   -1.1172   -8.1457 N.am      10 UNK        -0.4204 
     60 CA         33.0119   -2.1876   -8.1098 C.3       10 UNK         0.0237 
     61 CB         32.3800   -3.4507   -7.5050 C.3       10 UNK        -0.1985 
     62 C          34.3122   -1.8260   -7.3638 C.2       10 UNK         0.4970 
     63 O          35.3518   -2.4273   -7.6354 O.2       10 UNK        -0.4914 
     64 N          34.2294   -0.8487   -6.4545 N.am      11 UNK        -0.4285 
     65 CA         35.3562   -0.2342   -5.7448 C.3       11 UNK         0.1007 
     66 C          36.2325    0.7186   -6.6131 C.2       11 UNK         0.5703 
     67 N          35.8370    1.0747   -7.8313 N.am      11 UNK        -0.7361 
     68 O          37.3043    1.1300   -6.1752 O.2       11 UNK        -0.4986 
     69 C69        34.8921    0.4167   -4.4115 C.3       12 UNK        -0.0947 
     70 S70        33.8077    1.8844   -4.5762 S.3       12 UNK        -0.2240 
     71 C71        32.1480    1.2054   -4.9063 C.3       12 UNK         0.0194 
     72 H72        27.8552   -5.4600   -9.0591 H         1 UNK         0.0906 
     73 H73        29.3639   -6.3252   -8.7563 H         1 UNK         0.0906 
     74 H74        29.2770   -4.5859   -8.4864 H         1 UNK         0.0906 
     75 H75        29.0762   -4.0405   -6.3091 H         1 UNK         0.3140 
     76 H76        28.5423   -5.9649   -4.2910 H         1 UNK         0.1085 
     77 H77        28.7442   -4.0325   -2.7150 H         1 UNK         0.0836 
     78 H78        28.7223   -2.9121   -4.0582 H         1 UNK         0.0836 
     79 H79        31.0139   -3.6192   -1.6038 H         1 UNK         0.0731 
     80 H80        32.5240   -3.3802   -2.4454 H         1 UNK         0.0731 
     81 H81        32.4272   -1.4678   -4.3602 H         1 UNK         0.1312 
     82 H82        30.5065    2.0946   -2.9301 H         1 UNK         0.1406 
     83 H83        29.8603   -1.6487   -0.9402 H         1 UNK         0.1631 
     84 H84        29.4774    1.8257   -0.4481 H         1 UNK         0.0717 
     85 H85        28.7370    0.2737   -0.1406 H         1 UNK         0.0717 
     86 H86        28.0948   -0.6107   -3.0670 H         1 UNK         0.0934 
     87 H87        26.4999   -0.6164   -2.4219 H         1 UNK         0.0934 
     88 H88        26.6935   -0.5939   -4.9216 H         1 UNK         0.0739 
     89 H89        24.8569    0.8175   -3.4199 H         1 UNK         0.3093 
     90 H90        22.8679    1.8759   -4.4374 H         1 UNK         0.0818 
     91 H91        22.5289    2.3060   -6.8531 H         1 UNK         0.0819 
     92 H92        22.3001    0.5905   -7.1680 H         1 UNK         0.0819 
     93 H93        21.1308    1.4776   -6.1913 H         1 UNK         0.0819 
     94 H94        22.2420   -0.9276   -5.1947 H         1 UNK         0.3041 
     95 H95        22.6601   -2.1306   -1.8777 H         1 UNK         0.0784 
     96 H96        20.2493   -1.4791   -2.0371 H         1 UNK         0.0793 
     97 H97        20.1918   -2.0441   -3.7008 H         1 UNK         0.0793 
     98 H98        20.4739   -3.1845   -2.3847 H         1 UNK         0.0793 
     99 H99        22.1424   -3.4961   -4.3109 H         1 UNK         0.3024 
    100 H100       24.0405   -5.0026   -4.9354 H         1 UNK         0.1171 
    101 H101       22.9145   -3.5164   -6.5609 H         1 UNK         0.0786 
    102 H102       24.3463   -2.5127   -6.7183 H         1 UNK         0.0786 
    103 H103       24.3460   -4.1676   -7.3319 H         1 UNK         0.0786 
    104 H104       26.4272   -3.8112   -6.0179 H         1 UNK         0.2977 
    105 H105       26.5741    2.8972   -4.4740 H         1 UNK         0.3127 
    106 H106       29.0686    3.4990   -5.7730 H         1 UNK         0.0770 
    107 H107       26.5898    5.2408   -5.2850 H         1 UNK         0.0814 
    108 H108       28.1744    5.8286   -5.7682 H         1 UNK         0.0814 
    109 H109       27.9688    5.0756   -4.1960 H         1 UNK         0.0814 
    110 H110       25.8928    2.6622   -7.0182 H         1 UNK         0.2983 
    111 H111       26.4259    3.7341   -9.7154 H         1 UNK         0.0947 
    112 H112       24.1102    1.9849   -8.7325 H         1 UNK         0.0806 
    113 H113       24.2226    2.8254  -10.2669 H         1 UNK         0.0806 
    114 H114       24.0851    3.7485   -8.7790 H         1 UNK         0.0806 
    115 H115       26.4275    0.6508   -7.9249 H         1 UNK         0.3000 
    116 H116       27.1456   -1.0570  -10.1011 H         1 UNK         0.0850 
    117 H117       27.8062   -2.6506   -8.3286 H         1 UNK         0.0810 
    118 H118       26.2702   -1.9038   -7.9286 H         1 UNK         0.0810 
    119 H119       27.7414   -1.3871   -7.1077 H         1 UNK         0.0810 
    120 H120       29.1209    0.7238   -7.7134 H         1 UNK         0.3040 
    121 H121       31.1123    1.6609   -7.7665 H         1 UNK         0.0766 
    122 H122       30.9203    1.5138  -10.8158 H         1 UNK         0.0812 
    123 H123       31.8965    2.6374   -9.8807 H         1 UNK         0.0812 
    124 H124       30.1462    2.7372   -9.8114 H         1 UNK         0.0812 
    125 H125       31.0955   -1.3315   -7.7616 H         1 UNK         0.3205 
    126 H126       33.2896   -2.4064   -9.1430 H         1 UNK         0.0754 
    127 H127       33.0985   -4.2708   -7.4674 H         1 UNK         0.0769 
    128 H128       31.5336   -3.7937   -8.0988 H         1 UNK         0.0769 
    129 H129       32.0326   -3.2758   -6.4871 H         1 UNK         0.0769 
    130 H130       33.3385   -0.4002   -6.3234 H         1 UNK         0.2981 
    131 H131       36.0251   -1.0509   -5.4669 H         1 UNK         0.0541 
    132 H132       36.4243    1.6861   -8.3752 H         1 UNK         0.3459 
    133 H133       34.9560    0.7532   -8.2177 H         1 UNK         0.3459 
    134 H134       34.4092   -0.3250   -3.7773 H         1 UNK         0.0612 
    135 H135       35.7682    0.7326   -3.8426 H         1 UNK         0.0612 
    136 H136       32.1555    0.5943   -5.8036 H         1 UNK         0.0624 
    137 H137       31.4852    2.0407   -5.1388 H         1 UNK         0.0624 
@<TRIPOS>BOND
     1    1    2 1    
     2    1   72 1    
     3    1   73 1    
     4    1   74 1    
     5    2    3 2    
     6    2    4 am   BACKBONE|DICT|INTERRES
     7    4    5 1    
     8    4   75 1    
     9    5    6 1    
    10    5   35 1    
    11    5   76 1    
    12    6    7 1    
    13    6   77 1    
    14    6   78 1    
    15    7    8 1    
    16    8    9 1    
    17    8   79 1    
    18    8   80 1    
    19    9   10 ar   
    20    9   14 ar   
    21   10   11 ar   
    22   10   81 1    
    23   11   12 ar   
    24   11   71 1    
    25   12   13 ar   
    26   12   82 1    
    27   13   14 ar   
    28   13   15 1    
    29   14   83 1    
    30   15   16 1    
    31   15   84 1    
    32   15   85 1    
    33   16   17 1    
    34   17   18 1    
    35   17   86 1    
    36   17   87 1    
    37   18   19 1    
    38   18   37 1    
    39   18   88 1    
    40   19   20 am   BACKBONE|DICT|INTERRES
    41   19   89 1    
    42   20   21 2    
    43   20   22 1    
    44   22   23 1    
    45   22   24 1    
    46   22   90 1    
    47   23   91 1    
    48   23   92 1    
    49   23   93 1    
    50   24   25 am   BACKBONE|DICT|INTERRES
    51   24   94 1    
    52   25   26 2    
    53   25   27 1    
    54   27   28 1    
    55   27   29 1    
    56   27   95 1    
    57   28   96 1    
    58   28   97 1    
    59   28   98 1    
    60   29   30 am   BACKBONE|DICT|INTERRES
    61   29   99 1    
    62   30   31 2    
    63   30   32 1    
    64   32   33 1    
    65   32   34 1    
    66   32  100 1    
    67   33  101 1    
    68   33  102 1    
    69   33  103 1    
    70   34   35 am   BACKBONE|DICT|INTERRES
    71   34  104 1    
    72   35   36 2    
    73   37   38 2    
    74   37   39 am   BACKBONE|DICT|INTERRES
    75   39   40 1    
    76   39  105 1    
    77   40   41 1    
    78   40   42 1    
    79   40  106 1    
    80   41  107 1    
    81   41  108 1    
    82   41  109 1    
    83   42   43 2    
    84   42   44 am   BACKBONE|DICT|INTERRES
    85   44   45 1    
    86   44  110 1    
    87   45   46 1    
    88   45   47 1    
    89   45  111 1    
    90   46  112 1    
    91   46  113 1    
    92   46  114 1    
    93   47   48 2    
    94   47   49 am   BACKBONE|DICT|INTERRES
    95   49   50 1    
    96   49  115 1    
    97   50   51 1    
    98   50   52 1    
    99   50  116 1    
   100   51  117 1    
   101   51  118 1    
   102   51  119 1    
   103   52   53 2    
   104   52   54 am   BACKBONE|DICT|INTERRES
   105   54   55 1    
   106   54  120 1    
   107   55   56 1    
   108   55   57 1    
   109   55  121 1    
   110   56  122 1    
   111   56  123 1    
   112   56  124 1    
   113   57   58 2    
   114   57   59 am   BACKBONE|DICT|INTERRES
   115   59   60 1    
   116   59  125 1    
   117   60   61 1    
   118   60   62 1    
   119   60  126 1    
   120   61  127 1    
   121   61  128 1    
   122   61  129 1    
   123   62   63 2    
   124   62   64 am   BACKBONE|DICT|INTERRES
   125   64   65 1    
   126   64  130 1    
   127   65   66 1    
   128   65   69 1    
   129   65  131 1    
   130   66   67 am   BACKBONE|DICT|INTERRES
   131   66   68 2    
   132   67  132 1    
   133   67  133 1    
   134   69   70 1    
   135   69  134 1    
   136   69  135 1    
   137   70   71 1    
   138   71  136 1    
   139   71  137 1    
@<TRIPOS>SUBSTRUCTURE
     1 UNK         1 GROUP             0       ****    0 ROOT    
