@<TRIPOS>MOLECULE
3R137
137   139    1
SMALL
USER_CHARGES


@<TRIPOS>ATOM
      1 CA         29.1907   -3.7422    3.4016 C.3       0 UNK        -0.2020 
      2 C          29.2835   -3.1424    2.0068 C.2       0 UNK         0.4855 
      3 O          30.0160   -2.1739    1.8042 O.2       0 UNK        -0.5197 
      4 N          28.5472   -3.7102    1.0427 N.am      1 UNK        -0.4892 
      5 CA         28.5197   -3.2692   -0.3587 C.3       1 UNK         0.0835 
      6 C6         27.8912   -4.3401   -1.2845 C.3       12 UNK        -0.0855 
      7 S7         28.8064   -5.9236   -1.3186 S.3       12 UNK        -0.2931 
      8 C8         30.3602   -5.5217   -2.1986 C.3       12 UNK         0.0378 
      9 C9         30.1626   -4.5525   -3.3568 C.ar      12 UNK        -0.0802 
     10 C10        30.7023   -3.2637   -3.2868 C.ar      12 UNK        -0.0944 
     11 C11        30.4518   -2.3314   -4.2965 C.ar      12 UNK        -0.0787 
     12 C12        29.6737   -2.7085   -5.3941 C.ar      12 UNK        -0.0862 
     13 C13        29.1406   -3.9959   -5.4842 C.ar      12 UNK        -0.0733 
     14 C14        29.3970   -4.9210   -4.4683 C.ar      12 UNK        -0.0832 
     15 C15        28.2594   -4.3607   -6.6658 C.3       12 UNK         0.0240 
     16 S16        26.5252   -3.9045   -6.3392 S.3       12 UNK        -0.2522 
     17 C17        25.9849   -3.3438   -7.9923 C.3       12 UNK        -0.0967 
     18 CA         25.7838   -1.8114   -8.1058 C.3       5 UNK         0.0660 
     19 N          24.6820   -1.3325   -7.2681 N.am      5 UNK        -0.4015 
     20 C          24.1178   -0.1187   -7.3529 C.2       4 UNK         0.4946 
     21 O          24.4265    0.7173   -8.2041 O.2       4 UNK        -0.5353 
     22 CA         23.0702    0.2488   -6.2853 C.3       4 UNK         0.0277 
     23 CB         21.6517    0.1145   -6.8625 C.3       4 UNK        -0.1981 
     24 N          23.1599   -0.5222   -5.0369 N.am      4 UNK        -0.4209 
     25 C          24.2221   -0.5632   -4.2197 C.2       3 UNK         0.4942 
     26 O          25.2965   -0.0067   -4.4594 O.2       3 UNK        -0.5208 
     27 CA         24.0646   -1.4094   -2.9524 C.3       3 UNK         0.0250 
     28 CB         24.3159   -2.8970   -3.2561 C.3       3 UNK        -0.1990 
     29 N          25.0248   -0.9671   -1.9455 N.am      3 UNK        -0.4232 
     30 C          24.7720   -0.8136   -0.6417 C.2       2 UNK         0.4993 
     31 O          23.6698   -1.0167   -0.1279 O.2       2 UNK        -0.5286 
     32 CA         25.9736   -0.4291    0.2416 C.3       2 UNK         0.0209 
     33 CB         25.5551    0.0234    1.6534 C.3       2 UNK        -0.1931 
     34 N          26.8823   -1.5706    0.3600 N.am      2 UNK        -0.4546 
     35 C          27.7893   -1.9245   -0.5608 C.2       1 UNK         0.5154 
     36 O          28.0296   -1.2484   -1.5623 O.2       1 UNK        -0.5181 
     37 C          27.1003   -1.0232   -7.9114 C.2       5 UNK         0.5014 
     38 O          27.9781   -1.1376   -8.7652 O.2       5 UNK        -0.5248 
     39 N          27.2151   -0.2096   -6.8469 N.am      6 UNK        -0.4434 
     40 CA         28.3209    0.7239   -6.6011 C.3       6 UNK         0.0363 
     41 CB         28.0553    1.4935   -5.2984 C.3       6 UNK        -0.1936 
     42 C          28.5801    1.7081   -7.7529 C.2       6 UNK         0.5081 
     43 O          29.7386    2.0364   -8.0109 O.2       6 UNK        -0.5248 
     44 N          27.5111    2.1328   -8.4413 N.am      7 UNK        -0.4718 
     45 CA         27.5831    2.9959   -9.6216 C.3       7 UNK         0.0273 
     46 CB         26.1961    3.5999   -9.8920 C.3       7 UNK        -0.1935 
     47 C          28.1037    2.2602  -10.8686 C.2       7 UNK         0.5018 
     48 O          28.7978    2.8717  -11.6803 O.2       7 UNK        -0.5186 
     49 N          27.7686    0.9685  -10.9961 N.am      8 UNK        -0.4240 
     50 CA         28.2039    0.1009  -12.0932 C.3       8 UNK         0.0235 
     51 CB         27.2387   -1.0891  -12.2266 C.3       8 UNK        -0.2000 
     52 C          29.6477   -0.3841  -11.8945 C.2       8 UNK         0.4941 
     53 O          30.4297   -0.3734  -12.8454 O.2       8 UNK        -0.5273 
     54 N          29.9774   -0.7784  -10.6571 N.am      9 UNK        -0.4262 
     55 CA         31.3140   -1.1964  -10.2292 C.3       9 UNK         0.0264 
     56 CB         31.1950   -1.9171   -8.8770 C.3       9 UNK        -0.1955 
     57 C          32.3174   -0.0328  -10.1289 C.2       9 UNK         0.5031 
     58 O          33.5227   -0.2862  -10.1485 O.2       9 UNK        -0.5390 
     59 N          31.8053    1.2030  -10.0195 N.am      10 UNK        -0.4204 
     60 CA         32.5286    2.4653   -9.8413 C.3       10 UNK         0.0237 
     61 CB         33.4044    2.7889  -11.0710 C.3       10 UNK        -0.1985 
     62 C          33.3004    2.4935   -8.5099 C.2       10 UNK         0.4970 
     63 O          34.4987    2.7826   -8.4910 O.2       10 UNK        -0.4914 
     64 N          32.5885    2.1824   -7.4189 N.am      11 UNK        -0.4285 
     65 CA         33.1239    2.1783   -6.0472 C.3       11 UNK         0.1007 
     66 C          33.4281    3.5928   -5.4706 C.2       11 UNK         0.5703 
     67 N          32.9215    4.6744   -6.0520 N.am      11 UNK        -0.7361 
     68 O          34.1438    3.7094   -4.4786 O.2       11 UNK        -0.4986 
     69 C69        32.2181    1.3819   -5.0736 C.3       12 UNK        -0.0947 
     70 S70        32.0247   -0.3731   -5.5234 S.3       12 UNK        -0.2240 
     71 C71        30.9474   -0.8987   -4.1541 C.3       12 UNK         0.0194 
     72 H72        28.5122   -4.5945    3.4358 H         1 UNK         0.0906 
     73 H73        30.1734   -4.0787    3.7310 H         1 UNK         0.0906 
     74 H74        28.8320   -2.9945    4.1085 H         1 UNK         0.0906 
     75 H75        27.9872   -4.5244    1.2556 H         1 UNK         0.3140 
     76 H76        29.5513   -3.1034   -0.6726 H         1 UNK         0.1085 
     77 H77        26.8700   -4.5568   -0.9647 H         1 UNK         0.0836 
     78 H78        27.7934   -3.9685   -2.3065 H         1 UNK         0.0836 
     79 H79        31.0702   -5.1159   -1.4762 H         1 UNK         0.0731 
     80 H80        30.8044   -6.4449   -2.5730 H         1 UNK         0.0731 
     81 H81        31.2851   -2.9714   -2.4242 H         1 UNK         0.1312 
     82 H82        29.4615   -1.9962   -6.1752 H         1 UNK         0.1406 
     83 H83        28.9658   -5.9118   -4.5186 H         1 UNK         0.1631 
     84 H84        28.3191   -5.4292   -6.8775 H         1 UNK         0.0717 
     85 H85        28.6292   -3.8492   -7.5557 H         1 UNK         0.0717 
     86 H86        26.6854   -3.6895   -8.7549 H         1 UNK         0.0934 
     87 H87        25.0468   -3.8507   -8.2243 H         1 UNK         0.0934 
     88 H88        25.4828   -1.6150   -9.1373 H         1 UNK         0.0739 
     89 H89        24.3854   -1.9518   -6.5284 H         1 UNK         0.3093 
     90 H90        23.2365    1.2973   -6.0295 H         1 UNK         0.0818 
     91 H91        20.9003    0.4778   -6.1611 H         1 UNK         0.0819 
     92 H92        21.5450    0.6995   -7.7774 H         1 UNK         0.0819 
     93 H93        21.4114   -0.9206   -7.1084 H         1 UNK         0.0819 
     94 H94        22.3272   -1.0262   -4.7655 H         1 UNK         0.3041 
     95 H95        23.0446   -1.2805   -2.5837 H         1 UNK         0.0784 
     96 H96        23.6312   -3.2702   -4.0185 H         1 UNK         0.0793 
     97 H97        25.3320   -3.0668   -3.6153 H         1 UNK         0.0793 
     98 H98        24.1729   -3.5101   -2.3661 H         1 UNK         0.0793 
     99 H99        25.9547   -0.7610   -2.2958 H         1 UNK         0.3024 
    100 H100       26.4909    0.4050   -0.2392 H         1 UNK         0.1171 
    101 H101       26.4191    0.3359    2.2403 H         1 UNK         0.0786 
    102 H102       24.8734    0.8735    1.6036 H         1 UNK         0.0786 
    103 H103       25.0474   -0.7709    2.2024 H         1 UNK         0.0786 
    104 H104       26.7326   -2.1934    1.1406 H         1 UNK         0.2977 
    105 H105       26.4641   -0.1942   -6.1634 H         1 UNK         0.3127 
    106 H106       29.2329    0.1434   -6.4782 H         1 UNK         0.0770 
    107 H107       27.1319    2.0713   -5.3547 H         1 UNK         0.0814 
    108 H108       28.8632    2.1923   -5.0795 H         1 UNK         0.0814 
    109 H109       27.9695    0.8175   -4.4474 H         1 UNK         0.0814 
    110 H110       26.5937    1.8031   -8.1677 H         1 UNK         0.2983 
    111 H111       28.2764    3.8129   -9.4083 H         1 UNK         0.0947 
    112 H112       26.2190    4.2581  -10.7618 H         1 UNK         0.0806 
    113 H113       25.8514    4.1947   -9.0459 H         1 UNK         0.0806 
    114 H114       25.4492    2.8284  -10.0848 H         1 UNK         0.0806 
    115 H115       27.2431    0.5337  -10.2510 H         1 UNK         0.3000 
    116 H116       28.1674    0.6713  -13.0242 H         1 UNK         0.0850 
    117 H117       27.5271   -1.7307  -13.0604 H         1 UNK         0.0810 
    118 H118       26.2191   -0.7530  -12.4155 H         1 UNK         0.0810 
    119 H119       27.2266   -1.7092  -11.3296 H         1 UNK         0.0810 
    120 H120       29.2442   -0.8173   -9.9480 H         1 UNK         0.3040 
    121 H121       31.7032   -1.9037  -10.9645 H         1 UNK         0.0766 
    122 H122       30.7720   -1.2620   -8.1154 H         1 UNK         0.0812 
    123 H123       32.1702   -2.2487   -8.5177 H         1 UNK         0.0812 
    124 H124       30.5578   -2.7983   -8.9505 H         1 UNK         0.0812 
    125 H125       30.7992    1.2756   -9.9442 H         1 UNK         0.3205 
    126 H126       31.7668    3.2433   -9.7699 H         1 UNK         0.0754 
    127 H127       33.8478    3.7814  -10.9821 H         1 UNK         0.0769 
    128 H128       32.8160    2.7775  -11.9886 H         1 UNK         0.0769 
    129 H129       34.2229    2.0781  -11.1887 H         1 UNK         0.0769 
    130 H130       31.5959    1.9900   -7.5230 H         1 UNK         0.2981 
    131 H131       34.0862    1.6640   -6.0837 H         1 UNK         0.0541 
    132 H132       32.3280    4.5894   -6.8610 H         1 UNK         0.3459 
    133 H133       33.1305    5.5835   -5.6706 H         1 UNK         0.3459 
    134 H134       31.2295    1.8399   -5.0219 H         1 UNK         0.0612 
    135 H135       32.6256    1.4135   -4.0611 H         1 UNK         0.0612 
    136 H136       30.0831   -0.2380   -4.0971 H         1 UNK         0.0624 
    137 H137       31.4907   -0.7706   -3.2166 H         1 UNK         0.0624 
@<TRIPOS>BOND
     1    1    2 1    
     2    1   72 1    
     3    1   73 1    
     4    1   74 1    
     5    2    3 2    
     6    2    4 am   BACKBONE|DICT|INTERRES
     7    4    5 1    
     8    4   75 1    
     9    5    6 1    
    10    5   35 1    
    11    5   76 1    
    12    6    7 1    
    13    6   77 1    
    14    6   78 1    
    15    7    8 1    
    16    8    9 1    
    17    8   79 1    
    18    8   80 1    
    19    9   10 ar   
    20    9   14 ar   
    21   10   11 ar   
    22   10   81 1    
    23   11   12 ar   
    24   11   71 1    
    25   12   13 ar   
    26   12   82 1    
    27   13   14 ar   
    28   13   15 1    
    29   14   83 1    
    30   15   16 1    
    31   15   84 1    
    32   15   85 1    
    33   16   17 1    
    34   17   18 1    
    35   17   86 1    
    36   17   87 1    
    37   18   19 1    
    38   18   37 1    
    39   18   88 1    
    40   19   20 am   BACKBONE|DICT|INTERRES
    41   19   89 1    
    42   20   21 2    
    43   20   22 1    
    44   22   23 1    
    45   22   24 1    
    46   22   90 1    
    47   23   91 1    
    48   23   92 1    
    49   23   93 1    
    50   24   25 am   BACKBONE|DICT|INTERRES
    51   24   94 1    
    52   25   26 2    
    53   25   27 1    
    54   27   28 1    
    55   27   29 1    
    56   27   95 1    
    57   28   96 1    
    58   28   97 1    
    59   28   98 1    
    60   29   30 am   BACKBONE|DICT|INTERRES
    61   29   99 1    
    62   30   31 2    
    63   30   32 1    
    64   32   33 1    
    65   32   34 1    
    66   32  100 1    
    67   33  101 1    
    68   33  102 1    
    69   33  103 1    
    70   34   35 am   BACKBONE|DICT|INTERRES
    71   34  104 1    
    72   35   36 2    
    73   37   38 2    
    74   37   39 am   BACKBONE|DICT|INTERRES
    75   39   40 1    
    76   39  105 1    
    77   40   41 1    
    78   40   42 1    
    79   40  106 1    
    80   41  107 1    
    81   41  108 1    
    82   41  109 1    
    83   42   43 2    
    84   42   44 am   BACKBONE|DICT|INTERRES
    85   44   45 1    
    86   44  110 1    
    87   45   46 1    
    88   45   47 1    
    89   45  111 1    
    90   46  112 1    
    91   46  113 1    
    92   46  114 1    
    93   47   48 2    
    94   47   49 am   BACKBONE|DICT|INTERRES
    95   49   50 1    
    96   49  115 1    
    97   50   51 1    
    98   50   52 1    
    99   50  116 1    
   100   51  117 1    
   101   51  118 1    
   102   51  119 1    
   103   52   53 2    
   104   52   54 am   BACKBONE|DICT|INTERRES
   105   54   55 1    
   106   54  120 1    
   107   55   56 1    
   108   55   57 1    
   109   55  121 1    
   110   56  122 1    
   111   56  123 1    
   112   56  124 1    
   113   57   58 2    
   114   57   59 am   BACKBONE|DICT|INTERRES
   115   59   60 1    
   116   59  125 1    
   117   60   61 1    
   118   60   62 1    
   119   60  126 1    
   120   61  127 1    
   121   61  128 1    
   122   61  129 1    
   123   62   63 2    
   124   62   64 am   BACKBONE|DICT|INTERRES
   125   64   65 1    
   126   64  130 1    
   127   65   66 1    
   128   65   69 1    
   129   65  131 1    
   130   66   67 am   BACKBONE|DICT|INTERRES
   131   66   68 2    
   132   67  132 1    
   133   67  133 1    
   134   69   70 1    
   135   69  134 1    
   136   69  135 1    
   137   70   71 1    
   138   71  136 1    
   139   71  137 1    
@<TRIPOS>SUBSTRUCTURE
     1 UNK         1 GROUP             0       ****    0 ROOT    
