@<TRIPOS>MOLECULE
3R137
137   139    1
SMALL
USER_CHARGES


@<TRIPOS>ATOM
      1 CA         28.3511    1.9052    2.1018 C.3       0 UNK        -0.2020 
      2 C          28.0758    1.4255    0.6843 C.2       0 UNK         0.4855 
      3 O          27.6336    2.2128   -0.1533 O.2       0 UNK        -0.5197 
      4 N          28.3429    0.1434    0.4070 N.am      1 UNK        -0.4892 
      5 CA         28.0988   -0.5007   -0.8888 C.3       1 UNK         0.0835 
      6 C6         28.8612   -1.8441   -1.0149 C.3       12 UNK        -0.0855 
      7 S7         30.6715   -1.6377   -0.8942 S.3       12 UNK        -0.2931 
      8 C8         31.2566   -3.3526   -1.0967 C.3       12 UNK         0.0378 
      9 C9         31.1273   -3.8304   -2.5363 C.ar      12 UNK        -0.0802 
     10 C10        32.1425   -3.5681   -3.4626 C.ar      12 UNK        -0.0944 
     11 C11        32.0111   -3.9763   -4.7948 C.ar      12 UNK        -0.0787 
     12 C12        30.8615   -4.6668   -5.1929 C.ar      12 UNK        -0.0862 
     13 C13        29.8376   -4.9267   -4.2769 C.ar      12 UNK        -0.0733 
     14 C14        29.9834   -4.5198   -2.9481 C.ar      12 UNK        -0.0832 
     15 C15        28.5624   -5.6308   -4.7128 C.3       12 UNK         0.0240 
     16 S16        27.2699   -4.4306   -5.1653 S.3       12 UNK        -0.2522 
     17 C17        27.6066   -4.2066   -6.9487 C.3       12 UNK        -0.0967 
     18 CA         26.9803   -2.9335   -7.5877 C.3       5 UNK         0.0660 
     19 N          25.5664   -2.7565   -7.2837 N.am      5 UNK        -0.4015 
     20 C          24.5728   -3.4268   -7.8810 C.2       4 UNK         0.4946 
     21 O          24.7521   -4.2543   -8.7765 O.2       4 UNK        -0.5353 
     22 CA         23.1317   -3.1596   -7.4037 C.3       4 UNK         0.0277 
     23 CB         22.6054   -4.3605   -6.5994 C.3       4 UNK        -0.1981 
     24 N          22.9963   -1.9525   -6.5881 N.am      4 UNK        -0.4209 
     25 C          23.0974   -0.6967   -7.0442 C.2       3 UNK         0.4942 
     26 O          23.2266   -0.4081   -8.2335 O.2       3 UNK        -0.5208 
     27 CA         23.0784    0.4261   -5.9926 C.3       3 UNK         0.0250 
     28 CB         21.6960    1.0962   -5.9429 C.3       3 UNK        -0.1990 
     29 N          23.4499   -0.0198   -4.6415 N.am      3 UNK        -0.4232 
     30 C          24.6674   -0.4466   -4.2781 C.2       2 UNK         0.4993 
     31 O          25.6392   -0.4909   -5.0380 O.2       2 UNK        -0.5286 
     32 CA         24.8092   -0.9674   -2.8459 C.3       2 UNK         0.0209 
     33 CB         24.4309   -2.4596   -2.7798 C.3       2 UNK        -0.1931 
     34 N          26.1908   -0.7826   -2.4091 N.am      2 UNK        -0.4546 
     35 C          26.5886   -0.7134   -1.1331 C.2       1 UNK         0.5154 
     36 O          25.8212   -0.8429   -0.1745 O.2       1 UNK        -0.5181 
     37 C          27.7179   -1.6176   -7.3048 C.2       5 UNK         0.5014 
     38 O          27.6238   -0.6977   -8.1176 O.2       5 UNK        -0.5248 
     39 N          28.4558   -1.5588   -6.1900 N.am      6 UNK        -0.4434 
     40 CA         29.4651   -0.5512   -5.8518 C.3       6 UNK         0.0363 
     41 CB         29.9368   -0.7722   -4.4135 C.3       6 UNK        -0.1936 
     42 C          29.0843    0.9214   -6.0422 C.2       6 UNK         0.5081 
     43 O          29.9259    1.6850   -6.5134 O.2       6 UNK        -0.5248 
     44 N          27.8483    1.3062   -5.6988 N.am      7 UNK        -0.4718 
     45 CA         27.3951    2.6970   -5.8171 C.3       7 UNK         0.0273 
     46 CB         26.1688    2.9284   -4.9221 C.3       7 UNK        -0.1935 
     47 C          27.1291    3.1303   -7.2715 C.2       7 UNK         0.5018 
     48 O          27.1103    4.3324   -7.5387 O.2       7 UNK        -0.5186 
     49 N          26.9528    2.1614   -8.1801 N.am      8 UNK        -0.4240 
     50 CA         26.8609    2.3798   -9.6231 C.3       8 UNK         0.0235 
     51 CB         25.7597    1.4767  -10.2043 C.3       8 UNK        -0.2000 
     52 C          28.2093    2.1009  -10.3070 C.2       8 UNK         0.4941 
     53 O          28.6155    2.8708  -11.1778 O.2       8 UNK        -0.5273 
     54 N          28.8718    1.0039   -9.9127 N.am      9 UNK        -0.4262 
     55 CA         30.1196    0.5129  -10.5024 C.3       9 UNK         0.0264 
     56 CB         30.3223   -0.9565  -10.0945 C.3       9 UNK        -0.1955 
     57 C          31.3647    1.3376  -10.1357 C.2       9 UNK         0.5031 
     58 O          32.3174    1.3438  -10.9163 O.2       9 UNK        -0.5390 
     59 N          31.3554    1.9816   -8.9578 N.am      10 UNK        -0.4204 
     60 CA         32.4584    2.7413   -8.3519 C.3       10 UNK         0.0237 
     61 CB         32.8195    3.9795   -9.2012 C.3       10 UNK        -0.1985 
     62 C          33.6848    1.8727   -7.9963 C.2       10 UNK         0.4970 
     63 O          34.8032    2.3877   -7.9482 O.2       10 UNK        -0.4914 
     64 N          33.4569    0.5773   -7.7393 N.am      11 UNK        -0.4285 
     65 CA         34.4815   -0.4031   -7.3438 C.3       11 UNK         0.1007 
     66 C          34.9369   -0.3137   -5.8568 C.2       11 UNK         0.5703 
     67 N          34.2937    0.4799   -5.0081 N.am      11 UNK        -0.7361 
     68 O          35.9023   -0.9686   -5.4711 O.2       11 UNK        -0.4986 
     69 C69        34.0790   -1.8457   -7.7562 C.3       12 UNK        -0.0947 
     70 S70        32.5118   -2.4111   -7.0119 S.3       12 UNK        -0.2240 
     71 C71        33.0962   -3.6464   -5.8096 C.3       12 UNK         0.0194 
     72 H72        29.0697    2.7243    2.0880 H         1 UNK         0.0906 
     73 H73        27.4310    2.2664    2.5604 H         1 UNK         0.0906 
     74 H74        28.7543    1.1114    2.7304 H         1 UNK         0.0906 
     75 H75        28.6980   -0.4621    1.1330 H         1 UNK         0.3140 
     76 H76        28.4632    0.1817   -1.6591 H         1 UNK         0.1085 
     77 H77        28.5342   -2.5477   -0.2466 H         1 UNK         0.0836 
     78 H78        28.6374   -2.3114   -1.9749 H         1 UNK         0.0836 
     79 H79        32.3015   -3.4053   -0.7872 H         1 UNK         0.0731 
     80 H80        30.7076   -4.0107   -0.4213 H         1 UNK         0.0731 
     81 H81        33.0223   -3.0219   -3.1503 H         1 UNK         0.1312 
     82 H82        30.7580   -4.9780   -6.2231 H         1 UNK         0.1406 
     83 H83        29.1919   -4.7200   -2.2385 H         1 UNK         0.1631 
     84 H84        28.1905   -6.2542   -3.8983 H         1 UNK         0.0717 
     85 H85        28.7575   -6.3078   -5.5460 H         1 UNK         0.0717 
     86 H86        28.6820   -4.2296   -7.1311 H         1 UNK         0.0934 
     87 H87        27.2126   -5.0866   -7.4598 H         1 UNK         0.0934 
     88 H88        27.0676   -3.0572   -8.6697 H         1 UNK         0.0739 
     89 H89        25.3575   -2.0609   -6.5773 H         1 UNK         0.3093 
     90 H90        22.5107   -3.0412   -8.2944 H         1 UNK         0.0818 
     91 H91        21.5646   -4.2194   -6.3072 H         1 UNK         0.0819 
     92 H92        22.6515   -5.2765   -7.1902 H         1 UNK         0.0819 
     93 H93        23.1911   -4.5284   -5.6944 H         1 UNK         0.0819 
     94 H94        22.8688   -2.0885   -5.5966 H         1 UNK         0.3041 
     95 H95        23.8029    1.1693   -6.3254 H         1 UNK         0.0784 
     96 H96        21.4026    1.4596   -6.9290 H         1 UNK         0.0793 
     97 H97        20.9222    0.4045   -5.6074 H         1 UNK         0.0793 
     98 H98        21.6952    1.9549   -5.2713 H         1 UNK         0.0793 
     99 H99        22.7093   -0.0195   -3.9539 H         1 UNK         0.3024 
    100 H100       24.1484   -0.3886   -2.1959 H         1 UNK         0.1171 
    101 H101       23.4004   -2.6215   -3.0980 H         1 UNK         0.0786 
    102 H102       24.5161   -2.8480   -1.7649 H         1 UNK         0.0786 
    103 H103       25.0717   -3.0654   -3.4219 H         1 UNK         0.0786 
    104 H104       26.8485   -0.6566   -3.1669 H         1 UNK         0.2977 
    105 H105       28.4141   -2.3656   -5.5806 H         1 UNK         0.3127 
    106 H106       30.3084   -0.7352   -6.5151 H         1 UNK         0.0770 
    107 H107       29.1341   -0.5887   -3.7038 H         1 UNK         0.0814 
    108 H108       30.7647   -0.1093   -4.1580 H         1 UNK         0.0814 
    109 H109       30.2822   -1.7911   -4.2684 H         1 UNK         0.0814 
    110 H110       27.1664    0.6110   -5.4044 H         1 UNK         0.2983 
    111 H111       28.1934    3.3423   -5.4424 H         1 UNK         0.0947 
    112 H112       25.8688    3.9770   -4.9373 H         1 UNK         0.0806 
    113 H113       26.3780    2.6660   -3.8848 H         1 UNK         0.0806 
    114 H114       25.3138    2.3441   -5.2498 H         1 UNK         0.0806 
    115 H115       27.0186    1.1954   -7.8744 H         1 UNK         0.3000 
    116 H116       26.5883    3.4168   -9.8312 H         1 UNK         0.0850 
    117 H117       25.6663    1.6183  -11.2818 H         1 UNK         0.0810 
    118 H118       24.7894    1.7029   -9.7615 H         1 UNK         0.0810 
    119 H119       25.9630    0.4193  -10.0293 H         1 UNK         0.0810 
    120 H120       28.4340    0.4011   -9.2162 H         1 UNK         0.3040 
    121 H121       30.0138    0.5509  -11.5887 H         1 UNK         0.0766 
    122 H122       31.2307   -1.3659  -10.5390 H         1 UNK         0.0812 
    123 H123       29.4910   -1.5785  -10.4268 H         1 UNK         0.0812 
    124 H124       30.4109   -1.0677   -9.0137 H         1 UNK         0.0812 
    125 H125       30.5431    1.8787   -8.3545 H         1 UNK         0.3205 
    126 H126       32.0751    3.1082   -7.3988 H         1 UNK         0.0754 
    127 H127       33.5149    4.6298   -8.6692 H         1 UNK         0.0769 
    128 H128       31.9348    4.5733   -9.4312 H         1 UNK         0.0769 
    129 H129       33.2925    3.7025  -10.1437 H         1 UNK         0.0769 
    130 H130       32.5108    0.2312   -7.7781 H         1 UNK         0.2981 
    131 H131       35.3780   -0.1665   -7.9201 H         1 UNK         0.0541 
    132 H132       33.5028    1.0220   -5.3137 H         1 UNK         0.3459 
    133 H133       34.6042    0.5320   -4.0512 H         1 UNK         0.3459 
    134 H134       34.8773   -2.5531   -7.5245 H         1 UNK         0.0612 
    135 H135       33.9594   -1.8897   -8.8397 H         1 UNK         0.0612 
    136 H136       33.3970   -4.5521   -6.3379 H         1 UNK         0.0624 
    137 H137       33.9859   -3.2679   -5.3041 H         1 UNK         0.0624 
@<TRIPOS>BOND
     1    1    2 1    
     2    1   72 1    
     3    1   73 1    
     4    1   74 1    
     5    2    3 2    
     6    2    4 am   BACKBONE|DICT|INTERRES
     7    4    5 1    
     8    4   75 1    
     9    5    6 1    
    10    5   35 1    
    11    5   76 1    
    12    6    7 1    
    13    6   77 1    
    14    6   78 1    
    15    7    8 1    
    16    8    9 1    
    17    8   79 1    
    18    8   80 1    
    19    9   10 ar   
    20    9   14 ar   
    21   10   11 ar   
    22   10   81 1    
    23   11   12 ar   
    24   11   71 1    
    25   12   13 ar   
    26   12   82 1    
    27   13   14 ar   
    28   13   15 1    
    29   14   83 1    
    30   15   16 1    
    31   15   84 1    
    32   15   85 1    
    33   16   17 1    
    34   17   18 1    
    35   17   86 1    
    36   17   87 1    
    37   18   19 1    
    38   18   37 1    
    39   18   88 1    
    40   19   20 am   BACKBONE|DICT|INTERRES
    41   19   89 1    
    42   20   21 2    
    43   20   22 1    
    44   22   23 1    
    45   22   24 1    
    46   22   90 1    
    47   23   91 1    
    48   23   92 1    
    49   23   93 1    
    50   24   25 am   BACKBONE|DICT|INTERRES
    51   24   94 1    
    52   25   26 2    
    53   25   27 1    
    54   27   28 1    
    55   27   29 1    
    56   27   95 1    
    57   28   96 1    
    58   28   97 1    
    59   28   98 1    
    60   29   30 am   BACKBONE|DICT|INTERRES
    61   29   99 1    
    62   30   31 2    
    63   30   32 1    
    64   32   33 1    
    65   32   34 1    
    66   32  100 1    
    67   33  101 1    
    68   33  102 1    
    69   33  103 1    
    70   34   35 am   BACKBONE|DICT|INTERRES
    71   34  104 1    
    72   35   36 2    
    73   37   38 2    
    74   37   39 am   BACKBONE|DICT|INTERRES
    75   39   40 1    
    76   39  105 1    
    77   40   41 1    
    78   40   42 1    
    79   40  106 1    
    80   41  107 1    
    81   41  108 1    
    82   41  109 1    
    83   42   43 2    
    84   42   44 am   BACKBONE|DICT|INTERRES
    85   44   45 1    
    86   44  110 1    
    87   45   46 1    
    88   45   47 1    
    89   45  111 1    
    90   46  112 1    
    91   46  113 1    
    92   46  114 1    
    93   47   48 2    
    94   47   49 am   BACKBONE|DICT|INTERRES
    95   49   50 1    
    96   49  115 1    
    97   50   51 1    
    98   50   52 1    
    99   50  116 1    
   100   51  117 1    
   101   51  118 1    
   102   51  119 1    
   103   52   53 2    
   104   52   54 am   BACKBONE|DICT|INTERRES
   105   54   55 1    
   106   54  120 1    
   107   55   56 1    
   108   55   57 1    
   109   55  121 1    
   110   56  122 1    
   111   56  123 1    
   112   56  124 1    
   113   57   58 2    
   114   57   59 am   BACKBONE|DICT|INTERRES
   115   59   60 1    
   116   59  125 1    
   117   60   61 1    
   118   60   62 1    
   119   60  126 1    
   120   61  127 1    
   121   61  128 1    
   122   61  129 1    
   123   62   63 2    
   124   62   64 am   BACKBONE|DICT|INTERRES
   125   64   65 1    
   126   64  130 1    
   127   65   66 1    
   128   65   69 1    
   129   65  131 1    
   130   66   67 am   BACKBONE|DICT|INTERRES
   131   66   68 2    
   132   67  132 1    
   133   67  133 1    
   134   69   70 1    
   135   69  134 1    
   136   69  135 1    
   137   70   71 1    
   138   71  136 1    
   139   71  137 1    
@<TRIPOS>SUBSTRUCTURE
     1 UNK         1 GROUP             0       ****    0 ROOT    
