@<TRIPOS>MOLECULE
3R137
137   139    1
SMALL
USER_CHARGES


@<TRIPOS>ATOM
      1 CA         23.6091   -0.8998   -9.0242 C.3       0 UNK        -0.2020 
      2 C          24.6476   -1.9543   -8.6719 C.2       0 UNK         0.4855 
      3 O          24.7251   -2.9834   -9.3439 O.2       0 UNK        -0.5197 
      4 N          25.4430   -1.7056   -7.6247 N.am      1 UNK        -0.4892 
      5 CA         26.3961   -2.6590   -7.0546 C.3       1 UNK         0.0835 
      6 C6         27.6018   -1.9128   -6.4169 C.3       12 UNK        -0.0855 
      7 S7         29.1611   -2.8345   -6.6205 S.3       12 UNK        -0.2931 
      8 C8         29.6124   -3.2332   -4.8991 C.3       12 UNK         0.0378 
      9 C9         30.0836   -2.0184   -4.1122 C.ar      12 UNK        -0.0802 
     10 C10        31.1013   -1.1959   -4.6042 C.ar      12 UNK        -0.0944 
     11 C11        31.5474   -0.0955   -3.8680 C.ar      12 UNK        -0.0787 
     12 C12        30.9689    0.1823   -2.6255 C.ar      12 UNK        -0.0862 
     13 C13        29.9536   -0.6369   -2.1190 C.ar      12 UNK        -0.0733 
     14 C14        29.5204   -1.7363   -2.8655 C.ar      12 UNK        -0.0832 
     15 C15        29.3302   -0.3491   -0.7593 C.3       12 UNK         0.0240 
     16 S16        27.5352   -0.0478   -0.8667 S.3       12 UNK        -0.2522 
     17 C17        27.4815    1.4636   -1.8848 C.3       12 UNK        -0.0967 
     18 CA         26.9959    1.1926   -3.3310 C.3       5 UNK         0.0660 
     19 N          25.6467    0.6114   -3.3507 N.am      5 UNK        -0.4015 
     20 C          24.9436    0.2340   -4.4267 C.2       4 UNK         0.4946 
     21 O          25.3347    0.3541   -5.5923 O.2       4 UNK        -0.5353 
     22 CA         23.5689   -0.3819   -4.1259 C.3       4 UNK         0.0277 
     23 CB         22.6737   -0.4918   -5.3733 C.3       4 UNK        -0.1981 
     24 N          23.7264   -1.7040   -3.5165 N.am      4 UNK        -0.4209 
     25 C          23.8759   -1.9246   -2.2017 C.2       3 UNK         0.4942 
     26 O          23.9090   -1.0154   -1.3710 O.2       3 UNK        -0.5208 
     27 CA         23.9952   -3.3820   -1.7141 C.3       3 UNK         0.0250 
     28 CB         22.6443   -3.8721   -1.1674 C.3       3 UNK        -0.1990 
     29 N          24.4532   -4.3086   -2.7517 N.am      3 UNK        -0.4232 
     30 C          25.7329   -4.4661   -3.1141 C.2       2 UNK         0.4993 
     31 O          26.6747   -3.8996   -2.5603 O.2       2 UNK        -0.5286 
     32 CA         26.0236   -5.3699   -4.3302 C.3       2 UNK         0.0209 
     33 CB         24.8807   -6.3491   -4.6865 C.3       2 UNK        -0.1931 
     34 N          26.4046   -4.5543   -5.4916 N.am      2 UNK        -0.4546 
     35 C          25.6769   -3.5686   -6.0350 C.2       1 UNK         0.5154 
     36 O          24.5049   -3.3441   -5.7176 O.2       1 UNK        -0.5181 
     37 C          27.1458    2.4801   -4.1671 C.2       5 UNK         0.5014 
     38 O          28.2607    2.7840   -4.5881 O.2       5 UNK        -0.5248 
     39 N          26.0428    3.2083   -4.3993 N.am      6 UNK        -0.4434 
     40 CA         25.9890    4.4557   -5.1684 C.3       6 UNK         0.0363 
     41 CB         24.5602    5.0201   -5.1136 C.3       6 UNK        -0.1936 
     42 C          26.4573    4.3267   -6.6302 C.2       6 UNK         0.5081 
     43 O          26.9654    5.3038   -7.1810 O.2       6 UNK        -0.5248 
     44 N          26.2946    3.1380   -7.2308 N.am      7 UNK        -0.4718 
     45 CA         26.8025    2.8330   -8.5732 C.3       7 UNK         0.0273 
     46 CB         26.0453    1.6261   -9.1409 C.3       7 UNK        -0.1935 
     47 C          28.3180    2.5657   -8.5887 C.2       7 UNK         0.5018 
     48 O          28.9553    2.7900   -9.6175 O.2       7 UNK        -0.5186 
     49 N          28.8528    2.0871   -7.4542 N.am      8 UNK        -0.4240 
     50 CA         30.2654    1.8257   -7.1514 C.3       8 UNK         0.0235 
     51 CB         31.0240    3.1638   -7.0159 C.3       8 UNK        -0.2000 
     52 C          30.9818    0.8427   -8.1037 C.2       8 UNK         0.4941 
     53 O          32.2085    0.8885   -8.2038 O.2       8 UNK        -0.5273 
     54 N          30.2160   -0.0271   -8.7784 N.am      9 UNK        -0.4262 
     55 CA         30.6428   -0.8567   -9.9114 C.3       9 UNK         0.0264 
     56 CB         29.4463   -1.6872  -10.4056 C.3       9 UNK        -0.1955 
     57 C          31.8646   -1.7608   -9.6656 C.2       9 UNK         0.5031 
     58 O          32.6729   -1.9335  -10.5793 O.2       9 UNK        -0.5390 
     59 N          31.9778   -2.3252   -8.4567 N.am      10 UNK        -0.4204 
     60 CA         33.0764   -3.2161   -8.0731 C.3       10 UNK         0.0237 
     61 CB         32.6181   -4.1288   -6.9246 C.3       10 UNK        -0.1985 
     62 C          34.3728   -2.4851   -7.6785 C.2       10 UNK         0.4970 
     63 O          35.4230   -3.1299   -7.6673 O.2       10 UNK        -0.4914 
     64 N          34.2959   -1.1933   -7.3303 N.am      11 UNK        -0.4285 
     65 CA         35.4540   -0.4006   -6.8859 C.3       11 UNK         0.1007 
     66 C          36.2633    0.1778   -8.0787 C.2       11 UNK         0.5703 
     67 N          37.5135    0.5572   -7.8480 N.am      11 UNK        -0.7361 
     68 O          35.7759    0.3073   -9.2004 O.2       11 UNK        -0.4986 
     69 C69        35.0562    0.7066   -5.8735 C.3       12 UNK        -0.0947 
     70 S70        34.2733    0.0233   -4.3683 S.3       12 UNK        -0.2240 
     71 C71        32.6329    0.8011   -4.4417 C.3       12 UNK         0.0194 
     72 H72        23.6161   -0.0697   -8.3183 H         1 UNK         0.0906 
     73 H73        23.7996   -0.5025  -10.0207 H         1 UNK         0.0906 
     74 H74        22.6120   -1.3393   -9.0163 H         1 UNK         0.0906 
     75 H75        25.2906   -0.8768   -7.0539 H         1 UNK         0.3140 
     76 H76        26.7590   -3.2991   -7.8622 H         1 UNK         0.1085 
     77 H77        27.4270   -1.6702   -5.3661 H         1 UNK         0.0836 
     78 H78        27.7534   -0.9502   -6.9076 H         1 UNK         0.0836 
     79 H79        30.4091   -3.9769   -4.9030 H         1 UNK         0.0731 
     80 H80        28.7660   -3.7064   -4.4024 H         1 UNK         0.0731 
     81 H81        31.5508   -1.4088   -5.5629 H         1 UNK         0.1312 
     82 H82        31.3095    1.0353   -2.0546 H         1 UNK         0.1406 
     83 H83        28.7382   -2.3696   -2.4689 H         1 UNK         0.1631 
     84 H84        29.8084    0.5071   -0.2810 H         1 UNK         0.0717 
     85 H85        29.5039   -1.2032   -0.1035 H         1 UNK         0.0717 
     86 H86        26.8254    2.1816   -1.3889 H         1 UNK         0.0934 
     87 H87        28.4735    1.9210   -1.8886 H         1 UNK         0.0934 
     88 H88        27.6608    0.4542   -3.7839 H         1 UNK         0.0739 
     89 H89        25.2488    0.4042   -2.4416 H         1 UNK         0.3093 
     90 H90        23.0592    0.2851   -3.4269 H         1 UNK         0.0818 
     91 H91        23.0710   -1.1972   -6.1005 H         1 UNK         0.0819 
     92 H92        21.6701   -0.8235   -5.1077 H         1 UNK         0.0819 
     93 H93        22.5742    0.4734   -5.8715 H         1 UNK         0.0819 
     94 H94        23.8126   -2.4815   -4.1670 H         1 UNK         0.3041 
     95 H95        24.7154   -3.3913   -0.8927 H         1 UNK         0.0784 
     96 H96        22.2870   -3.2204   -0.3687 H         1 UNK         0.0793 
     97 H97        21.8763   -3.8893   -1.9419 H         1 UNK         0.0793 
     98 H98        22.7254   -4.8765   -0.7512 H         1 UNK         0.0793 
     99 H99        23.7423   -4.7892   -3.2844 H         1 UNK         0.3024 
    100 H100       26.8963   -5.9673   -4.0605 H         1 UNK         0.1171 
    101 H101       25.1875   -7.0275   -5.4826 H         1 UNK         0.0786 
    102 H102       24.6122   -6.9673   -3.8287 H         1 UNK         0.0786 
    103 H103       23.9774   -5.8409   -5.0247 H         1 UNK         0.0786 
    104 H104       27.3608   -4.6564   -5.8042 H         1 UNK         0.2977 
    105 H105       25.1701    2.8799   -4.0135 H         1 UNK         0.3127 
    106 H106       26.6573    5.1673   -4.6789 H         1 UNK         0.0770 
    107 H107       23.8382    4.3357   -5.5610 H         1 UNK         0.0814 
    108 H108       24.4928    5.9642   -5.6564 H         1 UNK         0.0814 
    109 H109       24.2483    5.2172   -4.0878 H         1 UNK         0.0814 
    110 H110       25.8626    2.3826   -6.7121 H         1 UNK         0.2983 
    111 H111       26.6128    3.6896   -9.2244 H         1 UNK         0.0947 
    112 H112       26.3825    1.3907  -10.1515 H         1 UNK         0.0806 
    113 H113       24.9747    1.8222   -9.1941 H         1 UNK         0.0806 
    114 H114       26.2018    0.7390   -8.5296 H         1 UNK         0.0806 
    115 H115       28.2361    2.0128   -6.6549 H         1 UNK         0.3000 
    116 H116       30.2561    1.3452   -6.1732 H         1 UNK         0.0850 
    117 H117       32.0508    3.0149   -6.6813 H         1 UNK         0.0810 
    118 H118       30.5413    3.8162   -6.2878 H         1 UNK         0.0810 
    119 H119       31.0687    3.6968   -7.9661 H         1 UNK         0.0810 
    120 H120       29.2232    0.0044   -8.6044 H         1 UNK         0.3040 
    121 H121       30.9212   -0.1654  -10.7095 H         1 UNK         0.0766 
    122 H122       29.7221   -2.2938  -11.2694 H         1 UNK         0.0812 
    123 H123       28.6179   -1.0487  -10.7132 H         1 UNK         0.0812 
    124 H124       29.0784   -2.3665   -9.6360 H         1 UNK         0.0812 
    125 H125       31.2406   -2.1712   -7.7817 H         1 UNK         0.3205 
    126 H126       33.3134   -3.8555   -8.9265 H         1 UNK         0.0754 
    127 H127       32.4553   -3.5670   -6.0053 H         1 UNK         0.0769 
    128 H128       33.3723   -4.8864   -6.7071 H         1 UNK         0.0769 
    129 H129       31.6963   -4.6550   -7.1733 H         1 UNK         0.0769 
    130 H130       33.4366   -0.6787   -7.4810 H         1 UNK         0.2981 
    131 H131       36.1329   -1.0732   -6.3574 H         1 UNK         0.0541 
    132 H132       37.9282    0.4618   -6.9340 H         1 UNK         0.3459 
    133 H133       38.0552    0.9427   -8.6057 H         1 UNK         0.3459 
    134 H134       34.4046    1.4410   -6.3495 H         1 UNK         0.0612 
    135 H135       35.9393    1.2595   -5.5490 H         1 UNK         0.0612 
    136 H136       32.3901    1.0101   -5.4790 H         1 UNK         0.0624 
    137 H137       32.6637    1.7638   -3.9295 H         1 UNK         0.0624 
@<TRIPOS>BOND
     1    1    2 1    
     2    1   72 1    
     3    1   73 1    
     4    1   74 1    
     5    2    3 2    
     6    2    4 am   BACKBONE|DICT|INTERRES
     7    4    5 1    
     8    4   75 1    
     9    5    6 1    
    10    5   35 1    
    11    5   76 1    
    12    6    7 1    
    13    6   77 1    
    14    6   78 1    
    15    7    8 1    
    16    8    9 1    
    17    8   79 1    
    18    8   80 1    
    19    9   10 ar   
    20    9   14 ar   
    21   10   11 ar   
    22   10   81 1    
    23   11   12 ar   
    24   11   71 1    
    25   12   13 ar   
    26   12   82 1    
    27   13   14 ar   
    28   13   15 1    
    29   14   83 1    
    30   15   16 1    
    31   15   84 1    
    32   15   85 1    
    33   16   17 1    
    34   17   18 1    
    35   17   86 1    
    36   17   87 1    
    37   18   19 1    
    38   18   37 1    
    39   18   88 1    
    40   19   20 am   BACKBONE|DICT|INTERRES
    41   19   89 1    
    42   20   21 2    
    43   20   22 1    
    44   22   23 1    
    45   22   24 1    
    46   22   90 1    
    47   23   91 1    
    48   23   92 1    
    49   23   93 1    
    50   24   25 am   BACKBONE|DICT|INTERRES
    51   24   94 1    
    52   25   26 2    
    53   25   27 1    
    54   27   28 1    
    55   27   29 1    
    56   27   95 1    
    57   28   96 1    
    58   28   97 1    
    59   28   98 1    
    60   29   30 am   BACKBONE|DICT|INTERRES
    61   29   99 1    
    62   30   31 2    
    63   30   32 1    
    64   32   33 1    
    65   32   34 1    
    66   32  100 1    
    67   33  101 1    
    68   33  102 1    
    69   33  103 1    
    70   34   35 am   BACKBONE|DICT|INTERRES
    71   34  104 1    
    72   35   36 2    
    73   37   38 2    
    74   37   39 am   BACKBONE|DICT|INTERRES
    75   39   40 1    
    76   39  105 1    
    77   40   41 1    
    78   40   42 1    
    79   40  106 1    
    80   41  107 1    
    81   41  108 1    
    82   41  109 1    
    83   42   43 2    
    84   42   44 am   BACKBONE|DICT|INTERRES
    85   44   45 1    
    86   44  110 1    
    87   45   46 1    
    88   45   47 1    
    89   45  111 1    
    90   46  112 1    
    91   46  113 1    
    92   46  114 1    
    93   47   48 2    
    94   47   49 am   BACKBONE|DICT|INTERRES
    95   49   50 1    
    96   49  115 1    
    97   50   51 1    
    98   50   52 1    
    99   50  116 1    
   100   51  117 1    
   101   51  118 1    
   102   51  119 1    
   103   52   53 2    
   104   52   54 am   BACKBONE|DICT|INTERRES
   105   54   55 1    
   106   54  120 1    
   107   55   56 1    
   108   55   57 1    
   109   55  121 1    
   110   56  122 1    
   111   56  123 1    
   112   56  124 1    
   113   57   58 2    
   114   57   59 am   BACKBONE|DICT|INTERRES
   115   59   60 1    
   116   59  125 1    
   117   60   61 1    
   118   60   62 1    
   119   60  126 1    
   120   61  127 1    
   121   61  128 1    
   122   61  129 1    
   123   62   63 2    
   124   62   64 am   BACKBONE|DICT|INTERRES
   125   64   65 1    
   126   64  130 1    
   127   65   66 1    
   128   65   69 1    
   129   65  131 1    
   130   66   67 am   BACKBONE|DICT|INTERRES
   131   66   68 2    
   132   67  132 1    
   133   67  133 1    
   134   69   70 1    
   135   69  134 1    
   136   69  135 1    
   137   70   71 1    
   138   71  136 1    
   139   71  137 1    
@<TRIPOS>SUBSTRUCTURE
     1 UNK         1 GROUP             0       ****    0 ROOT    
