@<TRIPOS>MOLECULE
3R137
137   139    1
SMALL
USER_CHARGES


@<TRIPOS>ATOM
      1 CA         31.3112    0.3291   -0.7638 C.3       0 UNK        -0.2020 
      2 C          30.2318   -0.4978   -1.4425 C.2       0 UNK         0.4855 
      3 O          29.7959   -0.1627   -2.5423 O.2       0 UNK        -0.5197 
      4 N          29.7698   -1.5641   -0.7795 N.am      1 UNK        -0.4892 
      5 CA         28.8067   -2.5558   -1.2857 C.3       1 UNK         0.0835 
      6 C6         28.9091   -3.8997   -0.5101 C.3       12 UNK        -0.0855 
      7 S7         30.6163   -4.5165   -0.3017 S.3       12 UNK        -0.2931 
      8 C8         30.7180   -5.8058   -1.5831 C.3       12 UNK         0.0378 
      9 C9         30.7658   -5.2238   -2.9893 C.ar      12 UNK        -0.0802 
     10 C10        31.8431   -4.4204   -3.3792 C.ar      12 UNK        -0.0944 
     11 C11        31.9224   -3.9115   -4.6786 C.ar      12 UNK        -0.0787 
     12 C12        30.9176   -4.2356   -5.5966 C.ar      12 UNK        -0.0862 
     13 C13        29.8199   -5.0129   -5.2139 C.ar      12 UNK        -0.0733 
     14 C14        29.7517   -5.5102   -3.9092 C.ar      12 UNK        -0.0832 
     15 C15        28.7002   -5.2891   -6.2116 C.3       12 UNK         0.0240 
     16 S16        27.1519   -4.4158   -5.7917 S.3       12 UNK        -0.2522 
     17 C17        27.7117   -2.6897   -5.6147 C.3       12 UNK        -0.0967 
     18 CA         27.2376   -1.7580   -6.7549 C.3       5 UNK         0.0660 
     19 N          25.7751   -1.5946   -6.7657 N.am      5 UNK        -0.4015 
     20 C          25.0475   -0.7225   -7.4857 C.2       4 UNK         0.4946 
     21 O          25.5261    0.1562   -8.2017 O.2       4 UNK        -0.5353 
     22 CA         23.5170   -0.8417   -7.3972 C.3       4 UNK         0.0277 
     23 CB         22.9992   -1.8494   -8.4361 C.3       4 UNK        -0.1981 
     24 N          23.0766   -1.2397   -6.0609 N.am      4 UNK        -0.4209 
     25 C          22.9935   -0.4015   -5.0191 C.2       3 UNK         0.4942 
     26 O          23.0901    0.8239   -5.1164 O.2       3 UNK        -0.5208 
     27 CA         22.7935   -1.0320   -3.6242 C.3       3 UNK         0.0250 
     28 CB         22.8362   -2.5782   -3.6197 C.3       3 UNK        -0.1990 
     29 N          23.7450   -0.5223   -2.6266 N.am      3 UNK        -0.4232 
     30 C          25.0787   -0.4165   -2.7478 C.2       2 UNK         0.4993 
     31 O          25.7004   -0.6282   -3.7917 O.2       2 UNK        -0.5286 
     32 CA         25.8719    0.0028   -1.4947 C.3       2 UNK         0.0209 
     33 CB         25.0872   -0.1233   -0.1679 C.3       2 UNK        -0.1931 
     34 N          27.1494   -0.7173   -1.4133 N.am      2 UNK        -0.4546 
     35 C          27.3421   -2.0424   -1.3167 C.2       1 UNK         0.5154 
     36 O          26.4179   -2.8535   -1.2267 O.2       1 UNK        -0.5181 
     37 C          28.0154   -0.4363   -6.6533 C.2       5 UNK         0.5014 
     38 O          28.9522   -0.2217   -7.4263 O.2       5 UNK        -0.5248 
     39 N          27.5991    0.4245   -5.7160 N.am      6 UNK        -0.4434 
     40 CA         28.2214    1.7187   -5.4417 C.3       6 UNK         0.0363 
     41 CB         27.5066    2.3927   -4.2624 C.3       6 UNK        -0.1936 
     42 C          28.2895    2.6652   -6.6542 C.2       6 UNK         0.5081 
     43 O          29.2210    3.4676   -6.7245 O.2       6 UNK        -0.5248 
     44 N          27.3336    2.5359   -7.5844 N.am      7 UNK        -0.4718 
     45 CA         27.2807    3.2847   -8.8380 C.3       7 UNK         0.0273 
     46 CB         25.8517    3.8103   -9.0528 C.3       7 UNK        -0.1935 
     47 C          27.7195    2.4185  -10.0279 C.2       7 UNK         0.5018 
     48 O          28.5355    2.8726  -10.8289 O.2       7 UNK        -0.5186 
     49 N          27.1767    1.1963  -10.1310 N.am      8 UNK        -0.4240 
     50 CA         27.3482    0.2893  -11.2706 C.3       8 UNK         0.0235 
     51 CB         26.3431   -0.8698  -11.1652 C.3       8 UNK        -0.2000 
     52 C          28.7762   -0.2522  -11.4220 C.2       8 UNK         0.4941 
     53 O          29.2777   -0.3162  -12.5450 O.2       8 UNK        -0.5273 
     54 N          29.4066   -0.6142  -10.2975 N.am      9 UNK        -0.4262 
     55 CA         30.8082   -1.0378  -10.2353 C.3       9 UNK         0.0264 
     56 CB         30.9176   -2.2608   -9.3077 C.3       9 UNK        -0.1955 
     57 C          31.7270    0.1080   -9.7698 C.2       9 UNK         0.5031 
     58 O          32.9409   -0.0886   -9.7042 O.2       9 UNK        -0.5390 
     59 N          31.1368    1.2741   -9.4586 N.am      10 UNK        -0.4204 
     60 CA         31.7595    2.4969   -8.9392 C.3       10 UNK         0.0237 
     61 CB         32.7008    3.1237   -9.9899 C.3       10 UNK        -0.1985 
     62 C          32.4335    2.3016   -7.5659 C.2       10 UNK         0.4970 
     63 O          33.4136    2.9858   -7.2648 O.2       10 UNK        -0.4914 
     64 N          31.9034    1.3723   -6.7596 N.am      11 UNK        -0.4285 
     65 CA         32.4356    1.0146   -5.4355 C.3       11 UNK         0.1007 
     66 C          32.1601    2.0621   -4.3170 C.2       11 UNK         0.5703 
     67 N          31.3363    3.0826   -4.5323 N.am      11 UNK        -0.7361 
     68 O          32.7435    1.9701   -3.2405 O.2       11 UNK        -0.4986 
     69 C69        32.0118   -0.4218   -5.0255 C.3       12 UNK        -0.0947 
     70 S70        32.6965   -1.6587   -6.1794 S.3       12 UNK        -0.2240 
     71 C71        33.1211   -3.0576   -5.0867 C.3       12 UNK         0.0194 
     72 H72        31.3975    0.0955    0.2970 H         1 UNK         0.0906 
     73 H73        32.2750    0.1406   -1.2355 H         1 UNK         0.0906 
     74 H74        31.0885    1.3916   -0.8603 H         1 UNK         0.0906 
     75 H75        30.1579   -1.7825    0.1274 H         1 UNK         0.3140 
     76 H76        29.0712   -2.7603   -2.3262 H         1 UNK         0.1085 
     77 H77        28.4834   -3.7892    0.4893 H         1 UNK         0.0836 
     78 H78        28.3130   -4.6700   -1.0034 H         1 UNK         0.0836 
     79 H79        31.6232   -6.3914   -1.4168 H         1 UNK         0.0731 
     80 H80        29.8832   -6.4992   -1.4688 H         1 UNK         0.0731 
     81 H81        32.6248   -4.1980   -2.6654 H         1 UNK         0.1312 
     82 H82        30.9772   -3.8613   -6.6089 H         1 UNK         0.1406 
     83 H83        28.9067   -6.1180   -3.6146 H         1 UNK         0.1631 
     84 H84        28.5037   -6.3615   -6.2463 H         1 UNK         0.0717 
     85 H85        29.0015   -5.0011   -7.2201 H         1 UNK         0.0717 
     86 H86        28.7973   -2.6593   -5.5383 H         1 UNK         0.0934 
     87 H87        27.3585   -2.3309   -4.6476 H         1 UNK         0.0934 
     88 H88        27.5103   -2.2127   -7.7092 H         1 UNK         0.0739 
     89 H89        25.2787   -2.2397   -6.1710 H         1 UNK         0.3093 
     90 H90        23.0931    0.1367   -7.6348 H         1 UNK         0.0818 
     91 H91        21.9103   -1.8996   -8.4307 H         1 UNK         0.0819 
     92 H92        23.3035   -1.5596   -9.4430 H         1 UNK         0.0819 
     93 H93        23.3832   -2.8545   -8.2569 H         1 UNK         0.0819 
     94 H94        22.9435   -2.2265   -5.8935 H         1 UNK         0.3041 
     95 H95        21.8005   -0.7241   -3.2936 H         1 UNK         0.0784 
     96 H96        22.0641   -3.0060   -4.2605 H         1 UNK         0.0793 
     97 H97        23.8041   -2.9610   -3.9476 H         1 UNK         0.0793 
     98 H98        22.6590   -2.9679   -2.6170 H         1 UNK         0.0793 
     99 H99        23.3411   -0.2754   -1.7345 H         1 UNK         0.3024 
    100 H100       26.1180    1.0563   -1.6325 H         1 UNK         0.1171 
    101 H101       25.7166    0.1354    0.6837 H         1 UNK         0.0786 
    102 H102       24.7153   -1.1358   -0.0054 H         1 UNK         0.0786 
    103 H103       24.2331    0.5544   -0.1433 H         1 UNK         0.0786 
    104 H104       27.9819   -0.1661   -1.5898 H         1 UNK         0.2977 
    105 H105       26.8372    0.1351   -5.1039 H         1 UNK         0.3127 
    106 H106       29.2458    1.5057   -5.1369 H         1 UNK         0.0770 
    107 H107       26.4412    2.5231   -4.4561 H         1 UNK         0.0814 
    108 H108       27.9294    3.3774   -4.0578 H         1 UNK         0.0814 
    109 H109       27.6188    1.8015   -3.3545 H         1 UNK         0.0814 
    110 H110       26.6446    1.8010   -7.4662 H         1 UNK         0.2983 
    111 H111       27.9508    4.1463   -8.7914 H         1 UNK         0.0947 
    112 H112       25.7755    4.3643   -9.9895 H         1 UNK         0.0806 
    113 H113       25.5570    4.4879   -8.2514 H         1 UNK         0.0806 
    114 H114       25.1211    3.0009   -9.0903 H         1 UNK         0.0806 
    115 H115       26.5292    0.8830   -9.4064 H         1 UNK         0.3000 
    116 H116       27.1156    0.8552  -12.1753 H         1 UNK         0.0850 
    117 H117       26.4169   -1.5309  -12.0297 H         1 UNK         0.0810 
    118 H118       25.3174   -0.5028  -11.1244 H         1 UNK         0.0810 
    119 H119       26.5165   -1.4761  -10.2752 H         1 UNK         0.0810 
    120 H120       28.9369   -0.5113   -9.4022 H         1 UNK         0.3040 
    121 H121       31.1570   -1.3405  -11.2247 H         1 UNK         0.0766 
    122 H122       31.9471   -2.6160   -9.2467 H         1 UNK         0.0812 
    123 H123       30.5942   -2.0304   -8.2934 H         1 UNK         0.0812 
    124 H124       30.3102   -3.0894   -9.6716 H         1 UNK         0.0812 
    125 H125       30.1347    1.3199   -9.5768 H         1 UNK         0.3205 
    126 H126       30.9436    3.2017   -8.7753 H         1 UNK         0.0754 
    127 H127       33.0498    4.1055   -9.6674 H         1 UNK         0.0769 
    128 H128       32.1923    3.2604  -10.9444 H         1 UNK         0.0769 
    129 H129       33.5827    2.5063  -10.1638 H         1 UNK         0.0769 
    130 H130       31.0991    0.8467   -7.0749 H         1 UNK         0.2981 
    131 H131       33.5235    1.0013   -5.5288 H         1 UNK         0.0541 
    132 H132       30.8515    3.1902   -5.4142 H         1 UNK         0.3459 
    133 H133       31.1960    3.7567   -3.7978 H         1 UNK         0.3459 
    134 H134       30.9248   -0.5179   -5.0116 H         1 UNK         0.0612 
    135 H135       32.3562   -0.6544   -4.0164 H         1 UNK         0.0612 
    136 H136       33.8285   -3.6985   -5.6138 H         1 UNK         0.0624 
    137 H137       33.6463   -2.6767   -4.2095 H         1 UNK         0.0624 
@<TRIPOS>BOND
     1    1    2 1    
     2    1   72 1    
     3    1   73 1    
     4    1   74 1    
     5    2    3 2    
     6    2    4 am   BACKBONE|DICT|INTERRES
     7    4    5 1    
     8    4   75 1    
     9    5    6 1    
    10    5   35 1    
    11    5   76 1    
    12    6    7 1    
    13    6   77 1    
    14    6   78 1    
    15    7    8 1    
    16    8    9 1    
    17    8   79 1    
    18    8   80 1    
    19    9   10 ar   
    20    9   14 ar   
    21   10   11 ar   
    22   10   81 1    
    23   11   12 ar   
    24   11   71 1    
    25   12   13 ar   
    26   12   82 1    
    27   13   14 ar   
    28   13   15 1    
    29   14   83 1    
    30   15   16 1    
    31   15   84 1    
    32   15   85 1    
    33   16   17 1    
    34   17   18 1    
    35   17   86 1    
    36   17   87 1    
    37   18   19 1    
    38   18   37 1    
    39   18   88 1    
    40   19   20 am   BACKBONE|DICT|INTERRES
    41   19   89 1    
    42   20   21 2    
    43   20   22 1    
    44   22   23 1    
    45   22   24 1    
    46   22   90 1    
    47   23   91 1    
    48   23   92 1    
    49   23   93 1    
    50   24   25 am   BACKBONE|DICT|INTERRES
    51   24   94 1    
    52   25   26 2    
    53   25   27 1    
    54   27   28 1    
    55   27   29 1    
    56   27   95 1    
    57   28   96 1    
    58   28   97 1    
    59   28   98 1    
    60   29   30 am   BACKBONE|DICT|INTERRES
    61   29   99 1    
    62   30   31 2    
    63   30   32 1    
    64   32   33 1    
    65   32   34 1    
    66   32  100 1    
    67   33  101 1    
    68   33  102 1    
    69   33  103 1    
    70   34   35 am   BACKBONE|DICT|INTERRES
    71   34  104 1    
    72   35   36 2    
    73   37   38 2    
    74   37   39 am   BACKBONE|DICT|INTERRES
    75   39   40 1    
    76   39  105 1    
    77   40   41 1    
    78   40   42 1    
    79   40  106 1    
    80   41  107 1    
    81   41  108 1    
    82   41  109 1    
    83   42   43 2    
    84   42   44 am   BACKBONE|DICT|INTERRES
    85   44   45 1    
    86   44  110 1    
    87   45   46 1    
    88   45   47 1    
    89   45  111 1    
    90   46  112 1    
    91   46  113 1    
    92   46  114 1    
    93   47   48 2    
    94   47   49 am   BACKBONE|DICT|INTERRES
    95   49   50 1    
    96   49  115 1    
    97   50   51 1    
    98   50   52 1    
    99   50  116 1    
   100   51  117 1    
   101   51  118 1    
   102   51  119 1    
   103   52   53 2    
   104   52   54 am   BACKBONE|DICT|INTERRES
   105   54   55 1    
   106   54  120 1    
   107   55   56 1    
   108   55   57 1    
   109   55  121 1    
   110   56  122 1    
   111   56  123 1    
   112   56  124 1    
   113   57   58 2    
   114   57   59 am   BACKBONE|DICT|INTERRES
   115   59   60 1    
   116   59  125 1    
   117   60   61 1    
   118   60   62 1    
   119   60  126 1    
   120   61  127 1    
   121   61  128 1    
   122   61  129 1    
   123   62   63 2    
   124   62   64 am   BACKBONE|DICT|INTERRES
   125   64   65 1    
   126   64  130 1    
   127   65   66 1    
   128   65   69 1    
   129   65  131 1    
   130   66   67 am   BACKBONE|DICT|INTERRES
   131   66   68 2    
   132   67  132 1    
   133   67  133 1    
   134   69   70 1    
   135   69  134 1    
   136   69  135 1    
   137   70   71 1    
   138   71  136 1    
   139   71  137 1    
@<TRIPOS>SUBSTRUCTURE
     1 UNK         1 GROUP             0       ****    0 ROOT    
