@<TRIPOS>MOLECULE
3R137
137   139    1
SMALL
USER_CHARGES


@<TRIPOS>ATOM
      1 CA         26.4113   -6.2554   -1.0816 C.3       0 UNK        -0.2020 
      2 C          27.0670   -6.6490   -2.4037 C.2       0 UNK         0.4855 
      3 O          26.8412   -7.7617   -2.8756 O.2       0 UNK        -0.5197 
      4 N          27.8918   -5.7994   -3.0327 N.am      1 UNK        -0.4892 
      5 CA         28.2163   -4.4155   -2.6627 C.3       1 UNK         0.0835 
      6 C6         29.4125   -3.8850   -3.4889 C.3       12 UNK        -0.0855 
      7 S7         30.9735   -4.7429   -3.0684 S.3       12 UNK        -0.2931 
      8 C8         31.6375   -3.7467   -1.6895 C.3       12 UNK         0.0378 
      9 C9         32.1952   -2.4142   -2.1679 C.ar      12 UNK        -0.0802 
     10 C10        33.5262   -2.3035   -2.5753 C.ar      12 UNK        -0.0944 
     11 C11        34.0206   -1.0857   -3.0517 C.ar      12 UNK        -0.0787 
     12 C12        33.1635    0.0191   -3.1429 C.ar      12 UNK        -0.0862 
     13 C13        31.8231   -0.0793   -2.7515 C.ar      12 UNK        -0.0733 
     14 C14        31.3698   -1.2908   -2.2151 C.ar      12 UNK        -0.0832 
     15 C15        30.8847    1.1192   -2.9353 C.3       12 UNK         0.0240 
     16 S16        29.1279    0.6393   -3.0999 S.3       12 UNK        -0.2522 
     17 C17        28.3140    2.1076   -3.8153 C.3       12 UNK        -0.0967 
     18 CA         27.9179    1.8979   -5.3009 C.3       5 UNK         0.0660 
     19 N          27.2765    0.6019   -5.5475 N.am      5 UNK        -0.4015 
     20 C          27.1692    0.0272   -6.7533 C.2       4 UNK         0.4946 
     21 O          27.6023    0.5371   -7.7865 O.2       4 UNK        -0.5353 
     22 CA         26.4617   -1.3358   -6.8383 C.3       4 UNK         0.0277 
     23 CB         27.4866   -2.4638   -6.6563 C.3       4 UNK        -0.1981 
     24 N          25.3824   -1.4911   -5.8617 N.am      4 UNK        -0.4209 
     25 C          24.3121   -0.6853   -5.7813 C.2       3 UNK         0.4942 
     26 O          24.0776    0.2162   -6.5861 O.2       3 UNK        -0.5208 
     27 CA         23.3804   -0.8585   -4.5692 C.3       3 UNK         0.0250 
     28 CB         22.1501   -1.6938   -4.9556 C.3       3 UNK        -0.1990 
     29 N          24.0189   -1.4522   -3.3891 N.am      3 UNK        -0.4232 
     30 C          25.1106   -0.9885   -2.7614 C.2       2 UNK         0.4993 
     31 O          25.7318    0.0118   -3.1220 O.2       2 UNK        -0.5286 
     32 CA         25.6081   -1.7851   -1.5405 C.3       2 UNK         0.0209 
     33 CB         24.5126   -2.6617   -0.8912 C.3       2 UNK        -0.1931 
     34 N          26.7997   -2.6045   -1.8103 N.am      2 UNK        -0.4546 
     35 C          26.9782   -3.4995   -2.7956 C.2       1 UNK         0.5154 
     36 O          26.2088   -3.6458   -3.7493 O.2       1 UNK        -0.5181 
     37 C          27.0365    3.0492   -5.8192 C.2       5 UNK         0.5014 
     38 O          27.5627    3.9976   -6.4015 O.2       5 UNK        -0.5248 
     39 N          25.7111    2.9203   -5.6500 N.am      6 UNK        -0.4434 
     40 CA         24.7076    3.8395   -6.1951 C.3       6 UNK         0.0363 
     41 CB         23.3446    3.5646   -5.5397 C.3       6 UNK        -0.1936 
     42 C          24.6051    3.7510   -7.7281 C.2       6 UNK         0.5081 
     43 O          24.4339    4.7775   -8.3851 O.2       6 UNK        -0.5248 
     44 N          24.7500    2.5342   -8.2718 N.am      7 UNK        -0.4718 
     45 CA         24.8026    2.2514   -9.7104 C.3       7 UNK         0.0273 
     46 CB         24.5374    0.7523   -9.9273 C.3       7 UNK        -0.1935 
     47 C          26.1287    2.6624  -10.3838 C.2       7 UNK         0.5018 
     48 O          26.2130    2.6021  -11.6109 O.2       7 UNK        -0.5186 
     49 N          27.1349    3.0455   -9.5827 N.am      8 UNK        -0.4240 
     50 CA         28.5004    3.4305   -9.9634 C.3       8 UNK         0.0235 
     51 CB         28.5027    4.6699  -10.8840 C.3       8 UNK        -0.2000 
     52 C          29.3515    2.2696  -10.5192 C.2       8 UNK         0.4941 
     53 O          30.3690    2.5193  -11.1678 O.2       8 UNK        -0.5273 
     54 N          28.9549    1.0255  -10.2206 N.am      9 UNK        -0.4262 
     55 CA         29.7570   -0.1821  -10.4305 C.3       9 UNK         0.0264 
     56 CB         28.8225   -1.3939  -10.5766 C.3       9 UNK        -0.1955 
     57 C          30.7484   -0.3938   -9.2725 C.2       9 UNK         0.5031 
     58 O          31.8443   -0.9100   -9.5004 O.2       9 UNK        -0.5390 
     59 N          30.3435    0.0313   -8.0646 N.am      10 UNK        -0.4204 
     60 CA         31.0928    0.0549   -6.8076 C.3       10 UNK         0.0237 
     61 CB         32.1087    1.2197   -6.8239 C.3       10 UNK        -0.1985 
     62 C          31.6961   -1.3151   -6.4631 C.2       10 UNK         0.4970 
     63 O          30.9443   -2.2367   -6.1464 O.2       10 UNK        -0.4914 
     64 N          33.0264   -1.4133   -6.5355 N.am      11 UNK        -0.4285 
     65 CA         33.8136   -2.6061   -6.2071 C.3       11 UNK         0.1007 
     66 C          33.6394   -3.7934   -7.1993 C.2       11 UNK         0.5703 
     67 N          33.0501   -3.5996   -8.3751 N.am      11 UNK        -0.7361 
     68 O          34.0526   -4.9103   -6.8967 O.2       11 UNK        -0.4986 
     69 C69        35.3212   -2.2748   -5.9950 C.3       12 UNK        -0.0947 
     70 S70        35.6778   -0.6447   -5.2421 S.3       12 UNK        -0.2240 
     71 C71        35.4821   -0.9656   -3.4625 C.3       12 UNK         0.0194 
     72 H72        27.1053   -5.7462   -0.4148 H         1 UNK         0.0906 
     73 H73        25.5514   -5.6109   -1.2585 H         1 UNK         0.0906 
     74 H74        26.0559   -7.1432   -0.5588 H         1 UNK         0.0906 
     75 H75        28.3064   -6.1047   -3.9011 H         1 UNK         0.3140 
     76 H76        28.5187   -4.4164   -1.6142 H         1 UNK         0.1085 
     77 H77        29.5356   -2.8098   -3.3753 H         1 UNK         0.0836 
     78 H78        29.2311   -4.0367   -4.5543 H         1 UNK         0.0836 
     79 H79        32.4257   -4.3167   -1.1952 H         1 UNK         0.0731 
     80 H80        30.8617   -3.5917   -0.9383 H         1 UNK         0.0731 
     81 H81        34.1738   -3.1684   -2.5279 H         1 UNK         0.1312 
     82 H82        33.5423    0.9532   -3.5347 H         1 UNK         0.1406 
     83 H83        30.3530   -1.3817   -1.8640 H         1 UNK         0.1631 
     84 H84        31.1761    1.6758   -3.8271 H         1 UNK         0.0717 
     85 H85        30.9941    1.7964   -2.0875 H         1 UNK         0.0717 
     86 H86        27.4298    2.3105   -3.2073 H         1 UNK         0.0934 
     87 H87        28.9630    2.9789   -3.7084 H         1 UNK         0.0934 
     88 H88        28.8376    1.9279   -5.8871 H         1 UNK         0.0739 
     89 H89        26.8724    0.1493   -4.7319 H         1 UNK         0.3093 
     90 H90        26.0231   -1.4249   -7.8334 H         1 UNK         0.0818 
     91 H91        28.2731   -2.4100   -7.4101 H         1 UNK         0.0819 
     92 H92        27.9730   -2.4019   -5.6830 H         1 UNK         0.0819 
     93 H93        27.0220   -3.4465   -6.7392 H         1 UNK         0.0819 
     94 H94        25.5066   -2.2059   -5.1515 H         1 UNK         0.3041 
     95 H95        23.0412    0.1393   -4.2838 H         1 UNK         0.0784 
     96 H96        21.6399   -1.2615   -5.8178 H         1 UNK         0.0793 
     97 H97        22.4233   -2.7168   -5.2177 H         1 UNK         0.0793 
     98 H98        21.4259   -1.7360   -4.1419 H         1 UNK         0.0793 
     99 H99        23.6030   -2.3016   -3.0358 H         1 UNK         0.3024 
    100 H100       25.9057   -1.0354   -0.8050 H         1 UNK         0.1171 
    101 H101       24.8636   -3.0909    0.0474 H         1 UNK         0.0786 
    102 H102       23.6232   -2.0747   -0.6565 H         1 UNK         0.0786 
    103 H103       24.2070   -3.4888   -1.5329 H         1 UNK         0.0786 
    104 H104       27.5262   -2.5198   -1.1131 H         1 UNK         0.2977 
    105 H105       25.3644    2.0935   -5.1840 H         1 UNK         0.3127 
    106 H106       25.0086    4.8582   -5.9408 H         1 UNK         0.0770 
    107 H107       22.9839    2.5586   -5.7567 H         1 UNK         0.0814 
    108 H108       22.5912    4.2645   -5.9037 H         1 UNK         0.0814 
    109 H109       23.3941    3.6778   -4.4566 H         1 UNK         0.0814 
    110 H110       24.7943    1.7309   -7.6509 H         1 UNK         0.2983 
    111 H111       24.0050    2.8154  -10.1988 H         1 UNK         0.0947 
    112 H112       24.4828    0.5133  -10.9902 H         1 UNK         0.0806 
    113 H113       23.5930    0.4452   -9.4774 H         1 UNK         0.0806 
    114 H114       25.3292    0.1396   -9.4969 H         1 UNK         0.0806 
    115 H115       26.9539    3.0343   -8.5874 H         1 UNK         0.3000 
    116 H116       28.9858    3.7224   -9.0308 H         1 UNK         0.0850 
    117 H117       29.5139    5.0560  -11.0174 H         1 UNK         0.0810 
    118 H118       27.9027    5.4771  -10.4637 H         1 UNK         0.0810 
    119 H119       28.1119    4.4408  -11.8756 H         1 UNK         0.0810 
    120 H120       28.1412    0.9247   -9.6210 H         1 UNK         0.3040 
    121 H121       30.3327   -0.0792  -11.3529 H         1 UNK         0.0766 
    122 H122       28.1673   -1.2837  -11.4408 H         1 UNK         0.0812 
    123 H123       28.1931   -1.5305   -9.6971 H         1 UNK         0.0812 
    124 H124       29.3938   -2.3125  -10.7172 H         1 UNK         0.0812 
    125 H125       29.3796    0.3523   -7.9974 H         1 UNK         0.3205 
    126 H126       30.3735    0.2545   -6.0142 H         1 UNK         0.0754 
    127 H127       32.8185    1.1363   -7.6479 H         1 UNK         0.0769 
    128 H128       32.6783    1.2659   -5.8952 H         1 UNK         0.0769 
    129 H129       31.5979    2.1768   -6.9303 H         1 UNK         0.0769 
    130 H130       33.5588   -0.6060   -6.8216 H         1 UNK         0.2981 
    131 H131       33.4250   -2.9700   -5.2554 H         1 UNK         0.0541 
    132 H132       32.7068   -2.6823   -8.6349 H         1 UNK         0.3459 
    133 H133       32.9443   -4.3755   -9.0084 H         1 UNK         0.3459 
    134 H134       35.7959   -3.0539   -5.3961 H         1 UNK         0.0612 
    135 H135       35.8421   -2.2800   -6.9544 H         1 UNK         0.0612 
    136 H136       35.9343   -0.1414   -2.9095 H         1 UNK         0.0624 
    137 H137       36.0451   -1.8602   -3.1922 H         1 UNK         0.0624 
@<TRIPOS>BOND
     1    1    2 1    
     2    1   72 1    
     3    1   73 1    
     4    1   74 1    
     5    2    3 2    
     6    2    4 am   BACKBONE|DICT|INTERRES
     7    4    5 1    
     8    4   75 1    
     9    5    6 1    
    10    5   35 1    
    11    5   76 1    
    12    6    7 1    
    13    6   77 1    
    14    6   78 1    
    15    7    8 1    
    16    8    9 1    
    17    8   79 1    
    18    8   80 1    
    19    9   10 ar   
    20    9   14 ar   
    21   10   11 ar   
    22   10   81 1    
    23   11   12 ar   
    24   11   71 1    
    25   12   13 ar   
    26   12   82 1    
    27   13   14 ar   
    28   13   15 1    
    29   14   83 1    
    30   15   16 1    
    31   15   84 1    
    32   15   85 1    
    33   16   17 1    
    34   17   18 1    
    35   17   86 1    
    36   17   87 1    
    37   18   19 1    
    38   18   37 1    
    39   18   88 1    
    40   19   20 am   BACKBONE|DICT|INTERRES
    41   19   89 1    
    42   20   21 2    
    43   20   22 1    
    44   22   23 1    
    45   22   24 1    
    46   22   90 1    
    47   23   91 1    
    48   23   92 1    
    49   23   93 1    
    50   24   25 am   BACKBONE|DICT|INTERRES
    51   24   94 1    
    52   25   26 2    
    53   25   27 1    
    54   27   28 1    
    55   27   29 1    
    56   27   95 1    
    57   28   96 1    
    58   28   97 1    
    59   28   98 1    
    60   29   30 am   BACKBONE|DICT|INTERRES
    61   29   99 1    
    62   30   31 2    
    63   30   32 1    
    64   32   33 1    
    65   32   34 1    
    66   32  100 1    
    67   33  101 1    
    68   33  102 1    
    69   33  103 1    
    70   34   35 am   BACKBONE|DICT|INTERRES
    71   34  104 1    
    72   35   36 2    
    73   37   38 2    
    74   37   39 am   BACKBONE|DICT|INTERRES
    75   39   40 1    
    76   39  105 1    
    77   40   41 1    
    78   40   42 1    
    79   40  106 1    
    80   41  107 1    
    81   41  108 1    
    82   41  109 1    
    83   42   43 2    
    84   42   44 am   BACKBONE|DICT|INTERRES
    85   44   45 1    
    86   44  110 1    
    87   45   46 1    
    88   45   47 1    
    89   45  111 1    
    90   46  112 1    
    91   46  113 1    
    92   46  114 1    
    93   47   48 2    
    94   47   49 am   BACKBONE|DICT|INTERRES
    95   49   50 1    
    96   49  115 1    
    97   50   51 1    
    98   50   52 1    
    99   50  116 1    
   100   51  117 1    
   101   51  118 1    
   102   51  119 1    
   103   52   53 2    
   104   52   54 am   BACKBONE|DICT|INTERRES
   105   54   55 1    
   106   54  120 1    
   107   55   56 1    
   108   55   57 1    
   109   55  121 1    
   110   56  122 1    
   111   56  123 1    
   112   56  124 1    
   113   57   58 2    
   114   57   59 am   BACKBONE|DICT|INTERRES
   115   59   60 1    
   116   59  125 1    
   117   60   61 1    
   118   60   62 1    
   119   60  126 1    
   120   61  127 1    
   121   61  128 1    
   122   61  129 1    
   123   62   63 2    
   124   62   64 am   BACKBONE|DICT|INTERRES
   125   64   65 1    
   126   64  130 1    
   127   65   66 1    
   128   65   69 1    
   129   65  131 1    
   130   66   67 am   BACKBONE|DICT|INTERRES
   131   66   68 2    
   132   67  132 1    
   133   67  133 1    
   134   69   70 1    
   135   69  134 1    
   136   69  135 1    
   137   70   71 1    
   138   71  136 1    
   139   71  137 1    
@<TRIPOS>SUBSTRUCTURE
     1 UNK         1 GROUP             0       ****    0 ROOT    
