@<TRIPOS>MOLECULE
3R137
137   139    1
SMALL
USER_CHARGES


@<TRIPOS>ATOM
      1 CA         24.4452   -3.6154    0.7355 C.3       0 UNK        -0.2020 
      2 C          24.8109   -2.5025   -0.2349 C.2       0 UNK         0.4855 
      3 O          24.0056   -1.6003   -0.4643 O.2       0 UNK        -0.5197 
      4 N          26.0179   -2.5615   -0.8130 N.am      1 UNK        -0.4892 
      5 CA         26.5464   -1.5603   -1.7517 C.3       1 UNK         0.0835 
      6 C6         28.0944   -1.5509   -1.7765 C.3       12 UNK        -0.0855 
      7 S7         28.8436   -1.2008   -0.1534 S.3       12 UNK        -0.2931 
      8 C8         30.3914   -2.1629   -0.2595 C.3       12 UNK         0.0378 
      9 C9         31.3201   -1.6724   -1.3666 C.ar      12 UNK        -0.0802 
     10 C10        31.7325   -2.5417   -2.3837 C.ar      12 UNK        -0.0944 
     11 C11        32.5973   -2.1018   -3.3942 C.ar      12 UNK        -0.0787 
     12 C12        33.0635   -0.7838   -3.3650 C.ar      12 UNK        -0.0862 
     13 C13        32.6448    0.0992   -2.3665 C.ar      12 UNK        -0.0733 
     14 C14        31.7823   -0.3526   -1.3641 C.ar      12 UNK        -0.0832 
     15 C15        33.1311    1.5394   -2.3787 C.3       12 UNK         0.0240 
     16 S16        32.3908    2.4873   -3.7458 S.3       12 UNK        -0.2522 
     17 C17        30.6937    2.7830   -3.1441 C.3       12 UNK        -0.0967 
     18 CA         29.6413    2.5539   -4.2579 C.3       5 UNK         0.0660 
     19 N          29.5674    1.1414   -4.6641 N.am      5 UNK        -0.4015 
     20 C          28.8548    0.6726   -5.6971 C.2       4 UNK         0.4946 
     21 O          28.0804    1.3717   -6.3506 O.2       4 UNK        -0.5353 
     22 CA         29.0568   -0.7849   -6.1326 C.3       4 UNK         0.0277 
     23 CB         29.5181   -1.7380   -5.0233 C.3       4 UNK        -0.1981 
     24 N          27.8014   -1.2964   -6.6618 N.am      4 UNK        -0.4209 
     25 C          27.6164   -1.8406   -7.8659 C.2       3 UNK         0.4942 
     26 O          28.4851   -1.8477   -8.7393 O.2       3 UNK        -0.5208 
     27 CA         26.2373   -2.4729   -8.1578 C.3       3 UNK         0.0250 
     28 CB         26.3821   -3.8323   -8.8723 C.3       3 UNK        -0.1990 
     29 N          25.3515   -2.5828   -6.9836 N.am      3 UNK        -0.4232 
     30 C          25.5644   -3.2781   -5.8544 C.2       2 UNK         0.4993 
     31 O          26.5223   -4.0303   -5.6650 O.2       2 UNK        -0.5286 
     32 CA         24.5452   -3.0610   -4.7240 C.3       2 UNK         0.0209 
     33 CB         23.6422   -4.2944   -4.5614 C.3       2 UNK        -0.1931 
     34 N          25.1989   -2.7673   -3.4449 N.am      2 UNK        -0.4546 
     35 C          25.9714   -1.7007   -3.1836 C.2       1 UNK         0.5154 
     36 O          26.2392   -0.8369   -4.0235 O.2       1 UNK        -0.5181 
     37 C          28.2942    3.2167   -3.8828 C.2       5 UNK         0.5014 
     38 O          28.2303    4.4474   -3.8834 O.2       5 UNK        -0.5248 
     39 N          27.2474    2.4314   -3.5886 N.am      6 UNK        -0.4434 
     40 CA         25.8923    2.9395   -3.3488 C.3       6 UNK         0.0363 
     41 CB         25.2038    2.0670   -2.2857 C.3       6 UNK        -0.1936 
     42 C          25.0401    3.0025   -4.6329 C.2       6 UNK         0.5081 
     43 O          23.8985    3.4599   -4.5599 O.2       6 UNK        -0.5248 
     44 N          25.5689    2.5314   -5.7701 N.am      7 UNK        -0.4718 
     45 CA         24.8581    2.4033   -7.0377 C.3       7 UNK         0.0273 
     46 CB         24.1596    1.0266   -7.0853 C.3       7 UNK        -0.1935 
     47 C          25.8210    2.6752   -8.2076 C.2       7 UNK         0.5018 
     48 O          26.2898    3.8051   -8.3504 O.2       7 UNK        -0.5186 
     49 N          26.0646    1.6564   -9.0438 N.am      8 UNK        -0.4240 
     50 CA         26.7718    1.7474  -10.3248 C.3       8 UNK         0.0235 
     51 CB         26.4686    0.4786  -11.1420 C.3       8 UNK        -0.2000 
     52 C          28.2945    1.9609  -10.2416 C.2       8 UNK         0.4941 
     53 O          28.8845    2.3229  -11.2605 O.2       8 UNK        -0.5273 
     54 N          28.9104    1.7059   -9.0764 N.am      9 UNK        -0.4262 
     55 CA         30.3600    1.7533   -8.8216 C.3       9 UNK         0.0264 
     56 CB         30.8833    3.2032   -8.9004 C.3       9 UNK        -0.1955 
     57 C          31.1795    0.7659   -9.6816 C.2       9 UNK         0.5031 
     58 O          32.3363    1.0505   -9.9984 O.2       9 UNK        -0.5390 
     59 N          30.5740   -0.3738  -10.0429 N.am      10 UNK        -0.4204 
     60 CA         31.1845   -1.4163  -10.8679 C.3       10 UNK         0.0237 
     61 CB         30.1240   -1.9881  -11.8245 C.3       10 UNK        -0.1985 
     62 C          31.7992   -2.5360  -10.0154 C.2       10 UNK         0.4970 
     63 O          32.8564   -3.0492  -10.3831 O.2       10 UNK        -0.4914 
     64 N          31.1239   -2.9021   -8.9153 N.am      11 UNK        -0.4285 
     65 CA         31.4800   -4.0058   -8.0015 C.3       11 UNK         0.1007 
     66 C          31.3687   -5.4260   -8.6394 C.2       11 UNK         0.5703 
     67 N          30.6494   -5.5996   -9.7426 N.am      11 UNK        -0.7361 
     68 O          31.9093   -6.3960   -8.1129 O.2       11 UNK        -0.4986 
     69 C69        32.8283   -3.7767   -7.2515 C.3       12 UNK        -0.0947 
     70 S70        32.7830   -2.3017   -6.1794 S.3       12 UNK        -0.2240 
     71 C71        33.0029   -3.0454   -4.5235 C.3       12 UNK         0.0194 
     72 H72        25.2477   -4.3452    0.8418 H         1 UNK         0.0906 
     73 H73        24.2340   -3.1990    1.7202 H         1 UNK         0.0906 
     74 H74        23.5544   -4.1385    0.3888 H         1 UNK         0.0906 
     75 H75        26.6502   -3.3126   -0.5733 H         1 UNK         0.3140 
     76 H76        26.2269   -0.5783   -1.3979 H         1 UNK         0.1085 
     77 H77        28.4709   -2.5077   -2.1428 H         1 UNK         0.0836 
     78 H78        28.4618   -0.7809   -2.4565 H         1 UNK         0.0836 
     79 H79        30.1460   -3.2177   -0.3933 H         1 UNK         0.0731 
     80 H80        30.9148   -2.0907    0.6949 H         1 UNK         0.0731 
     81 H81        31.3719   -3.5613   -2.3947 H         1 UNK         0.1312 
     82 H82        33.7315   -0.4328   -4.1400 H         1 UNK         0.1406 
     83 H83        31.4626    0.3220   -0.5811 H         1 UNK         0.1631 
     84 H84        34.2160    1.5479   -2.4930 H         1 UNK         0.0717 
     85 H85        32.9201    2.0377   -1.4311 H         1 UNK         0.0717 
     86 H86        30.4775    2.1541   -2.2788 H         1 UNK         0.0934 
     87 H87        30.6651    3.8131   -2.7821 H         1 UNK         0.0934 
     88 H88        29.9794    3.0986   -5.1428 H         1 UNK         0.0739 
     89 H89        30.2066    0.5192   -4.1910 H         1 UNK         0.3093 
     90 H90        29.8288   -0.7660   -6.9036 H         1 UNK         0.0818 
     91 H91        29.8939   -2.6681   -5.4467 H         1 UNK         0.0819 
     92 H92        30.3155   -1.3160   -4.4202 H         1 UNK         0.0819 
     93 H93        28.6975   -2.0120   -4.3681 H         1 UNK         0.0819 
     94 H94        27.0234   -1.2619   -6.0136 H         1 UNK         0.3041 
     95 H95        25.7383   -1.7928   -8.8488 H         1 UNK         0.0784 
     96 H96        26.9137   -3.7234   -9.8186 H         1 UNK         0.0793 
     97 H97        26.9404   -4.5498   -8.2700 H         1 UNK         0.0793 
     98 H98        25.4091   -4.2683   -9.0980 H         1 UNK         0.0793 
     99 H99        24.5111   -2.0239   -7.0337 H         1 UNK         0.3024 
    100 H100       23.9162   -2.2026   -4.9707 H         1 UNK         0.1171 
    101 H101       23.1213   -4.5230   -5.4923 H         1 UNK         0.0786 
    102 H102       24.2156   -5.1799   -4.2834 H         1 UNK         0.0786 
    103 H103       22.8815   -4.1328   -3.7972 H         1 UNK         0.0786 
    104 H104       25.0588   -3.4335   -2.7000 H         1 UNK         0.2977 
    105 H105       27.3480    1.4278   -3.6585 H         1 UNK         0.3127 
    106 H106       25.9473    3.9548   -2.9505 H         1 UNK         0.0770 
    107 H107       24.9655    1.0761   -2.6696 H         1 UNK         0.0814 
    108 H108       24.2631    2.5178   -1.9670 H         1 UNK         0.0814 
    109 H109       25.8232    1.9524   -1.3961 H         1 UNK         0.0814 
    110 H110       26.5350    2.2086   -5.7852 H         1 UNK         0.2983 
    111 H111       24.0891    3.1763   -7.1038 H         1 UNK         0.0947 
    112 H112       23.6298    0.8754   -8.0270 H         1 UNK         0.0806 
    113 H113       23.4180    0.9409   -6.2906 H         1 UNK         0.0806 
    114 H114       24.8720    0.2131   -6.9529 H         1 UNK         0.0806 
    115 H115       25.6352    0.7694   -8.8333 H         1 UNK         0.3000 
    116 H116       26.3629    2.6040  -10.8651 H         1 UNK         0.0850 
    117 H117       26.9134    0.5395  -12.1365 H         1 UNK         0.0810 
    118 H118       25.3966    0.3372  -11.2802 H         1 UNK         0.0810 
    119 H119       26.8707   -0.4162  -10.6657 H         1 UNK         0.0810 
    120 H120       28.3374    1.4726   -8.2692 H         1 UNK         0.3040 
    121 H121       30.5104    1.4270   -7.7948 H         1 UNK         0.0766 
    122 H122       30.2994    3.8686   -8.2644 H         1 UNK         0.0812 
    123 H123       30.8473    3.5928   -9.9180 H         1 UNK         0.0812 
    124 H124       31.9195    3.2649   -8.5657 H         1 UNK         0.0812 
    125 H125       29.6433   -0.5730   -9.6885 H         1 UNK         0.3205 
    126 H126       31.9824   -0.9851  -11.4764 H         1 UNK         0.0754 
    127 H127       30.5524   -2.7587  -12.4670 H         1 UNK         0.0769 
    128 H128       29.7219   -1.2110  -12.4751 H         1 UNK         0.0769 
    129 H129       29.2876   -2.4371  -11.2874 H         1 UNK         0.0769 
    130 H130       30.2213   -2.4674   -8.7429 H         1 UNK         0.2981 
    131 H131       30.6944   -4.0078   -7.2462 H         1 UNK         0.0541 
    132 H132       30.5736   -6.5222  -10.1407 H         1 UNK         0.3459 
    133 H133       30.1837   -4.8205  -10.1777 H         1 UNK         0.3459 
    134 H134       33.6543   -3.6694   -7.9551 H         1 UNK         0.0612 
    135 H135       33.0805   -4.6403   -6.6347 H         1 UNK         0.0612 
    136 H136       32.4130   -3.9617   -4.4703 H         1 UNK         0.0624 
    137 H137       34.0467   -3.3342   -4.3953 H         1 UNK         0.0624 
@<TRIPOS>BOND
     1    1    2 1    
     2    1   72 1    
     3    1   73 1    
     4    1   74 1    
     5    2    3 2    
     6    2    4 am   BACKBONE|DICT|INTERRES
     7    4    5 1    
     8    4   75 1    
     9    5    6 1    
    10    5   35 1    
    11    5   76 1    
    12    6    7 1    
    13    6   77 1    
    14    6   78 1    
    15    7    8 1    
    16    8    9 1    
    17    8   79 1    
    18    8   80 1    
    19    9   10 ar   
    20    9   14 ar   
    21   10   11 ar   
    22   10   81 1    
    23   11   12 ar   
    24   11   71 1    
    25   12   13 ar   
    26   12   82 1    
    27   13   14 ar   
    28   13   15 1    
    29   14   83 1    
    30   15   16 1    
    31   15   84 1    
    32   15   85 1    
    33   16   17 1    
    34   17   18 1    
    35   17   86 1    
    36   17   87 1    
    37   18   19 1    
    38   18   37 1    
    39   18   88 1    
    40   19   20 am   BACKBONE|DICT|INTERRES
    41   19   89 1    
    42   20   21 2    
    43   20   22 1    
    44   22   23 1    
    45   22   24 1    
    46   22   90 1    
    47   23   91 1    
    48   23   92 1    
    49   23   93 1    
    50   24   25 am   BACKBONE|DICT|INTERRES
    51   24   94 1    
    52   25   26 2    
    53   25   27 1    
    54   27   28 1    
    55   27   29 1    
    56   27   95 1    
    57   28   96 1    
    58   28   97 1    
    59   28   98 1    
    60   29   30 am   BACKBONE|DICT|INTERRES
    61   29   99 1    
    62   30   31 2    
    63   30   32 1    
    64   32   33 1    
    65   32   34 1    
    66   32  100 1    
    67   33  101 1    
    68   33  102 1    
    69   33  103 1    
    70   34   35 am   BACKBONE|DICT|INTERRES
    71   34  104 1    
    72   35   36 2    
    73   37   38 2    
    74   37   39 am   BACKBONE|DICT|INTERRES
    75   39   40 1    
    76   39  105 1    
    77   40   41 1    
    78   40   42 1    
    79   40  106 1    
    80   41  107 1    
    81   41  108 1    
    82   41  109 1    
    83   42   43 2    
    84   42   44 am   BACKBONE|DICT|INTERRES
    85   44   45 1    
    86   44  110 1    
    87   45   46 1    
    88   45   47 1    
    89   45  111 1    
    90   46  112 1    
    91   46  113 1    
    92   46  114 1    
    93   47   48 2    
    94   47   49 am   BACKBONE|DICT|INTERRES
    95   49   50 1    
    96   49  115 1    
    97   50   51 1    
    98   50   52 1    
    99   50  116 1    
   100   51  117 1    
   101   51  118 1    
   102   51  119 1    
   103   52   53 2    
   104   52   54 am   BACKBONE|DICT|INTERRES
   105   54   55 1    
   106   54  120 1    
   107   55   56 1    
   108   55   57 1    
   109   55  121 1    
   110   56  122 1    
   111   56  123 1    
   112   56  124 1    
   113   57   58 2    
   114   57   59 am   BACKBONE|DICT|INTERRES
   115   59   60 1    
   116   59  125 1    
   117   60   61 1    
   118   60   62 1    
   119   60  126 1    
   120   61  127 1    
   121   61  128 1    
   122   61  129 1    
   123   62   63 2    
   124   62   64 am   BACKBONE|DICT|INTERRES
   125   64   65 1    
   126   64  130 1    
   127   65   66 1    
   128   65   69 1    
   129   65  131 1    
   130   66   67 am   BACKBONE|DICT|INTERRES
   131   66   68 2    
   132   67  132 1    
   133   67  133 1    
   134   69   70 1    
   135   69  134 1    
   136   69  135 1    
   137   70   71 1    
   138   71  136 1    
   139   71  137 1    
@<TRIPOS>SUBSTRUCTURE
     1 UNK         1 GROUP             0       ****    0 ROOT    
