@<TRIPOS>MOLECULE
3R137
137   139    1
SMALL
USER_CHARGES


@<TRIPOS>ATOM
      1 CA         25.0264   -5.3789   -3.0028 C.3       0 UNK        -0.2020 
      2 C          25.5306   -4.5995   -1.7981 C.2       0 UNK         0.4855 
      3 O          24.7254   -4.1902   -0.9619 O.2       0 UNK        -0.5197 
      4 N          26.8547   -4.4208   -1.6881 N.am      1 UNK        -0.4892 
      5 CA         27.5157   -3.7495   -0.5610 C.3       1 UNK         0.0835 
      6 C6         29.0423   -4.0384   -0.4767 C.3       12 UNK        -0.0855 
      7 S7         29.4717   -5.7902   -0.7707 S.3       12 UNK        -0.2931 
      8 C8         31.0599   -5.6585   -1.6640 C.3       12 UNK         0.0378 
      9 C9         30.9829   -4.8301   -2.9446 C.ar      12 UNK        -0.0802 
     10 C10        31.8450   -3.7415   -3.1232 C.ar      12 UNK        -0.0944 
     11 C11        31.8193   -2.9948   -4.3057 C.ar      12 UNK        -0.0787 
     12 C12        30.8988   -3.3292   -5.3019 C.ar      12 UNK        -0.0862 
     13 C13        30.0306   -4.4115   -5.1401 C.ar      12 UNK        -0.0733 
     14 C14        30.0856   -5.1676   -3.9640 C.ar      12 UNK        -0.0832 
     15 C15        29.0611   -4.7725   -6.2581 C.3       12 UNK         0.0240 
     16 S16        27.3191   -4.7430   -5.7305 S.3       12 UNK        -0.2522 
     17 C17        27.1113   -3.0268   -5.1562 C.3       12 UNK        -0.0967 
     18 CA         26.7167   -2.0535   -6.3012 C.3       5 UNK         0.0660 
     19 N          25.4241   -1.4054   -6.0597 N.am      5 UNK        -0.4015 
     20 C          24.7161   -0.7641   -7.0017 C.2       4 UNK         0.4946 
     21 O          25.0636   -0.6897   -8.1801 O.2       4 UNK        -0.5353 
     22 CA         23.4273   -0.0477   -6.5556 C.3       4 UNK         0.0277 
     23 CB         22.2195   -0.9891   -6.6840 C.3       4 UNK        -0.1981 
     24 N          23.4907    0.4832   -5.1904 N.am      4 UNK        -0.4209 
     25 C          24.3708    1.4012   -4.7679 C.2       3 UNK         0.4942 
     26 O          25.1998    1.9350   -5.5062 O.2       3 UNK        -0.5208 
     27 CA         24.3925    1.7321   -3.2620 C.3       3 UNK         0.0250 
     28 CB         23.1702    1.2021   -2.4772 C.3       3 UNK        -0.1990 
     29 N          25.6435    1.2731   -2.6407 N.am      3 UNK        -0.4232 
     30 C          26.1277    0.0214   -2.6513 C.2       2 UNK         0.4993 
     31 O          25.5439   -0.9283   -3.1796 O.2       2 UNK        -0.5286 
     32 CA         27.5349   -0.1981   -2.0662 C.3       2 UNK         0.0209 
     33 CB         27.9280    0.7973   -0.9507 C.3       2 UNK        -0.1931 
     34 N          27.7372   -1.5941   -1.6680 N.am      2 UNK        -0.4546 
     35 C          27.2393   -2.2338   -0.5995 C.2       1 UNK         0.5154 
     36 O          26.5930   -1.6999    0.3034 O.2       1 UNK        -0.5181 
     37 C          27.8239   -1.0128   -6.5587 C.2       5 UNK         0.5014 
     38 O          28.6717   -1.2351   -7.4230 O.2       5 UNK        -0.5248 
     39 N          27.7763    0.1171   -5.8347 N.am      6 UNK        -0.4434 
     40 CA         28.6800    1.2519   -6.0311 C.3       6 UNK         0.0363 
     41 CB         28.6016    2.2341   -4.8510 C.3       6 UNK        -0.1936 
     42 C          28.4109    1.9642   -7.3601 C.2       6 UNK         0.5081 
     43 O          29.3627    2.2878   -8.0648 O.2       6 UNK        -0.5248 
     44 N          27.1297    2.1440   -7.7104 N.am      7 UNK        -0.4718 
     45 CA         26.7004    2.6822   -9.0044 C.3       7 UNK         0.0273 
     46 CB         25.1753    2.8699   -9.0055 C.3       7 UNK        -0.1935 
     47 C          27.1479    1.8149  -10.1964 C.2       7 UNK         0.5018 
     48 O          27.5349    2.3652  -11.2278 O.2       7 UNK        -0.5186 
     49 N          27.1070    0.4856  -10.0268 N.am      8 UNK        -0.4240 
     50 CA         27.5765   -0.4908  -11.0088 C.3       8 UNK         0.0235 
     51 CB         27.0209   -1.8827  -10.6622 C.3       8 UNK        -0.2000 
     52 C          29.1096   -0.5272  -11.1319 C.2       8 UNK         0.4941 
     53 O          29.6257   -0.4121  -12.2444 O.2       8 UNK        -0.5273 
     54 N          29.8093   -0.7178  -10.0040 N.am      9 UNK        -0.4262 
     55 CA         31.2593   -0.9422   -9.9716 C.3       9 UNK         0.0264 
     56 CB         31.6109   -1.7387   -8.7068 C.3       9 UNK        -0.1955 
     57 C          32.1062    0.3400  -10.0292 C.2       9 UNK         0.5031 
     58 O          33.2990    0.2425  -10.3203 O.2       9 UNK        -0.5390 
     59 N          31.5047    1.4961   -9.7141 N.am      10 UNK        -0.4204 
     60 CA         32.1311    2.8142   -9.5409 C.3       10 UNK         0.0237 
     61 CB         32.8376    3.2901  -10.8295 C.3       10 UNK        -0.1985 
     62 C          33.0275    2.9098   -8.2873 C.2       10 UNK         0.4970 
     63 O          33.8704    3.8069   -8.2197 O.2       10 UNK        -0.4914 
     64 N          32.8331    2.0066   -7.3150 N.am      11 UNK        -0.4285 
     65 CA         33.5143    2.0209   -6.0126 C.3       11 UNK         0.1007 
     66 C          32.8987    3.0384   -5.0101 C.2       11 UNK         0.5703 
     67 N          33.5665    3.2858   -3.8909 N.am      11 UNK        -0.7361 
     68 O          31.8297    3.6052   -5.2276 O.2       11 UNK        -0.4986 
     69 C69        33.6771    0.5924   -5.4245 C.3       12 UNK        -0.0947 
     70 S70        32.1296   -0.2973   -5.0391 S.3       12 UNK        -0.2240 
     71 C71        32.8499   -1.8960   -4.5425 C.3       12 UNK         0.0194 
     72 H72        25.8226   -5.9556   -3.4722 H         1 UNK         0.0906 
     73 H73        24.2466   -6.0773   -2.7000 H         1 UNK         0.0906 
     74 H74        24.6050   -4.7006   -3.7440 H         1 UNK         0.0906 
     75 H75        27.4724   -4.8103   -2.3857 H         1 UNK         0.3140 
     76 H76        27.0628   -4.1371    0.3547 H         1 UNK         0.1085 
     77 H77        29.5981   -3.4222   -1.1834 H         1 UNK         0.0836 
     78 H78        29.4177   -3.7581    0.5092 H         1 UNK         0.0836 
     79 H79        31.8046   -5.2461   -0.9813 H         1 UNK         0.0731 
     80 H80        31.4029   -6.6625   -1.9170 H         1 UNK         0.0731 
     81 H81        32.5616   -3.4942   -2.3517 H         1 UNK         0.1312 
     82 H82        30.8732   -2.7555   -6.2159 H         1 UNK         0.1406 
     83 H83        29.4281   -6.0178   -3.8414 H         1 UNK         0.1631 
     84 H84        29.3005   -5.7715   -6.6246 H         1 UNK         0.0717 
     85 H85        29.1770   -4.0983   -7.1085 H         1 UNK         0.0717 
     86 H86        28.0055   -2.7088   -4.6175 H         1 UNK         0.0934 
     87 H87        26.3336   -3.0576   -4.3940 H         1 UNK         0.0934 
     88 H88        26.6107   -2.6202   -7.2291 H         1 UNK         0.0739 
     89 H89        25.1096   -1.3726   -5.0943 H         1 UNK         0.3093 
     90 H90        23.2737    0.7977   -7.2291 H         1 UNK         0.0818 
     91 H91        21.2863   -0.4710   -6.4620 H         1 UNK         0.0819 
     92 H92        22.1367   -1.3798   -7.6993 H         1 UNK         0.0819 
     93 H93        22.2987   -1.8442   -6.0114 H         1 UNK         0.0819 
     94 H94        22.8657    0.0743   -4.5106 H         1 UNK         0.3041 
     95 H95        24.3856    2.8209   -3.1914 H         1 UNK         0.0784 
     96 H96        22.2357    1.5672   -2.9058 H         1 UNK         0.0793 
     97 H97        23.1269    0.1124   -2.4562 H         1 UNK         0.0793 
     98 H98        23.1978    1.5441   -1.4425 H         1 UNK         0.0793 
     99 H99        26.2046    1.9962   -2.2127 H         1 UNK         0.3024 
    100 H100       28.2271   -0.0464   -2.8938 H         1 UNK         0.1171 
    101 H101       28.8882    0.5323   -0.5076 H         1 UNK         0.0786 
    102 H102       27.1895    0.8270   -0.1487 H         1 UNK         0.0786 
    103 H103       28.0311    1.8107   -1.3396 H         1 UNK         0.0786 
    104 H104       28.2183   -2.1626   -2.3489 H         1 UNK         0.2977 
    105 H105       26.9858    0.2643   -5.2251 H         1 UNK         0.3127 
    106 H106       29.7002    0.8690   -6.0785 H         1 UNK         0.0770 
    107 H107       27.5793    2.5380   -4.6303 H         1 UNK         0.0814 
    108 H108       29.1645    3.1430   -5.0676 H         1 UNK         0.0814 
    109 H109       29.0387    1.8087   -3.9495 H         1 UNK         0.0814 
    110 H110       26.4028    1.9082   -7.0400 H         1 UNK         0.2983 
    111 H111       27.1655    3.6636   -9.1204 H         1 UNK         0.0947 
    112 H112       24.8427    3.3422   -9.9308 H         1 UNK         0.0806 
    113 H113       24.8515    3.5055   -8.1810 H         1 UNK         0.0806 
    114 H114       24.6516    1.9179   -8.9208 H         1 UNK         0.0806 
    115 H115       26.6973    0.1190   -9.1740 H         1 UNK         0.3000 
    116 H116       27.1741   -0.2060  -11.9836 H         1 UNK         0.0850 
    117 H117       27.3480   -2.6267  -11.3896 H         1 UNK         0.0810 
    118 H118       25.9306   -1.8841  -10.6648 H         1 UNK         0.0810 
    119 H119       27.3499   -2.2201   -9.6789 H         1 UNK         0.0810 
    120 H120       29.3135   -0.8236   -9.1198 H         1 UNK         0.3040 
    121 H121       31.5360   -1.5508  -10.8354 H         1 UNK         0.0766 
    122 H122       32.6745   -1.9785   -8.6725 H         1 UNK         0.0812 
    123 H123       31.3760   -1.1700   -7.8075 H         1 UNK         0.0812 
    124 H124       31.0633   -2.6803   -8.6657 H         1 UNK         0.0812 
    125 H125       30.5306    1.4671   -9.4240 H         1 UNK         0.3205 
    126 H126       31.3085    3.5070   -9.3602 H         1 UNK         0.0754 
    127 H127       33.1241    4.3395  -10.7519 H         1 UNK         0.0769 
    128 H128       32.1843    3.1978  -11.6971 H         1 UNK         0.0769 
    129 H129       33.7468    2.7231  -11.0302 H         1 UNK         0.0769 
    130 H130       32.0843    1.3393   -7.4155 H         1 UNK         0.2981 
    131 H131       34.5279    2.3833   -6.1952 H         1 UNK         0.0541 
    132 H132       34.4450    2.8329   -3.6944 H         1 UNK         0.3459 
    133 H133       33.1820    3.9415   -3.2292 H         1 UNK         0.3459 
    134 H134       34.2853    0.6240   -4.5191 H         1 UNK         0.0612 
    135 H135       34.2433   -0.0146   -6.1327 H         1 UNK         0.0612 
    136 H136       33.5323   -2.2353   -5.3230 H         1 UNK         0.0624 
    137 H137       33.4560   -1.7381   -3.6490 H         1 UNK         0.0624 
@<TRIPOS>BOND
     1    1    2 1    
     2    1   72 1    
     3    1   73 1    
     4    1   74 1    
     5    2    3 2    
     6    2    4 am   BACKBONE|DICT|INTERRES
     7    4    5 1    
     8    4   75 1    
     9    5    6 1    
    10    5   35 1    
    11    5   76 1    
    12    6    7 1    
    13    6   77 1    
    14    6   78 1    
    15    7    8 1    
    16    8    9 1    
    17    8   79 1    
    18    8   80 1    
    19    9   10 ar   
    20    9   14 ar   
    21   10   11 ar   
    22   10   81 1    
    23   11   12 ar   
    24   11   71 1    
    25   12   13 ar   
    26   12   82 1    
    27   13   14 ar   
    28   13   15 1    
    29   14   83 1    
    30   15   16 1    
    31   15   84 1    
    32   15   85 1    
    33   16   17 1    
    34   17   18 1    
    35   17   86 1    
    36   17   87 1    
    37   18   19 1    
    38   18   37 1    
    39   18   88 1    
    40   19   20 am   BACKBONE|DICT|INTERRES
    41   19   89 1    
    42   20   21 2    
    43   20   22 1    
    44   22   23 1    
    45   22   24 1    
    46   22   90 1    
    47   23   91 1    
    48   23   92 1    
    49   23   93 1    
    50   24   25 am   BACKBONE|DICT|INTERRES
    51   24   94 1    
    52   25   26 2    
    53   25   27 1    
    54   27   28 1    
    55   27   29 1    
    56   27   95 1    
    57   28   96 1    
    58   28   97 1    
    59   28   98 1    
    60   29   30 am   BACKBONE|DICT|INTERRES
    61   29   99 1    
    62   30   31 2    
    63   30   32 1    
    64   32   33 1    
    65   32   34 1    
    66   32  100 1    
    67   33  101 1    
    68   33  102 1    
    69   33  103 1    
    70   34   35 am   BACKBONE|DICT|INTERRES
    71   34  104 1    
    72   35   36 2    
    73   37   38 2    
    74   37   39 am   BACKBONE|DICT|INTERRES
    75   39   40 1    
    76   39  105 1    
    77   40   41 1    
    78   40   42 1    
    79   40  106 1    
    80   41  107 1    
    81   41  108 1    
    82   41  109 1    
    83   42   43 2    
    84   42   44 am   BACKBONE|DICT|INTERRES
    85   44   45 1    
    86   44  110 1    
    87   45   46 1    
    88   45   47 1    
    89   45  111 1    
    90   46  112 1    
    91   46  113 1    
    92   46  114 1    
    93   47   48 2    
    94   47   49 am   BACKBONE|DICT|INTERRES
    95   49   50 1    
    96   49  115 1    
    97   50   51 1    
    98   50   52 1    
    99   50  116 1    
   100   51  117 1    
   101   51  118 1    
   102   51  119 1    
   103   52   53 2    
   104   52   54 am   BACKBONE|DICT|INTERRES
   105   54   55 1    
   106   54  120 1    
   107   55   56 1    
   108   55   57 1    
   109   55  121 1    
   110   56  122 1    
   111   56  123 1    
   112   56  124 1    
   113   57   58 2    
   114   57   59 am   BACKBONE|DICT|INTERRES
   115   59   60 1    
   116   59  125 1    
   117   60   61 1    
   118   60   62 1    
   119   60  126 1    
   120   61  127 1    
   121   61  128 1    
   122   61  129 1    
   123   62   63 2    
   124   62   64 am   BACKBONE|DICT|INTERRES
   125   64   65 1    
   126   64  130 1    
   127   65   66 1    
   128   65   69 1    
   129   65  131 1    
   130   66   67 am   BACKBONE|DICT|INTERRES
   131   66   68 2    
   132   67  132 1    
   133   67  133 1    
   134   69   70 1    
   135   69  134 1    
   136   69  135 1    
   137   70   71 1    
   138   71  136 1    
   139   71  137 1    
@<TRIPOS>SUBSTRUCTURE
     1 UNK         1 GROUP             0       ****    0 ROOT    
