@<TRIPOS>MOLECULE
3R137
137   139    1
SMALL
USER_CHARGES


@<TRIPOS>ATOM
      1 CA         26.2246    2.3964    2.1117 C.3       0 UNK        -0.2020 
      2 C          26.7744    1.5200    0.9959 C.2       0 UNK         0.4855 
      3 O          27.9483    1.6411    0.6452 O.2       0 UNK        -0.5197 
      4 N          25.9368    0.6410    0.4356 N.am      1 UNK        -0.4892 
      5 CA         26.2835   -0.2535   -0.6675 C.3       1 UNK         0.0835 
      6 C6         27.1180   -1.4805   -0.2046 C.3       12 UNK        -0.0855 
      7 S7         27.6464   -2.5323   -1.5976 S.3       12 UNK        -0.2931 
      8 C8         29.4685   -2.3955   -1.5517 C.3       12 UNK         0.0378 
      9 C9         30.0948   -2.6148   -2.9270 C.ar      12 UNK        -0.0802 
     10 C10        31.1000   -1.7560   -3.3870 C.ar      12 UNK        -0.0944 
     11 C11        31.6312   -1.9067   -4.6724 C.ar      12 UNK        -0.0787 
     12 C12        31.1543   -2.9266   -5.5007 C.ar      12 UNK        -0.0862 
     13 C13        30.1658   -3.8014   -5.0465 C.ar      12 UNK        -0.0733 
     14 C14        29.6567   -3.6535   -3.7549 C.ar      12 UNK        -0.0832 
     15 C15        29.6286   -4.9024   -5.9434 C.3       12 UNK         0.0240 
     16 S16        27.9342   -4.5321   -6.4935 S.3       12 UNK        -0.2522 
     17 C17        28.2057   -3.4123   -7.9111 C.3       12 UNK        -0.0967 
     18 CA         27.5898   -1.9938   -7.7741 C.3       5 UNK         0.0660 
     19 N          26.2653   -1.9971   -7.1393 N.am      5 UNK        -0.4015 
     20 C          25.4107   -0.9664   -7.1341 C.2       4 UNK         0.4946 
     21 O          25.6188    0.0747   -7.7574 O.2       4 UNK        -0.5353 
     22 CA         24.1622   -1.0495   -6.2376 C.3       4 UNK         0.0277 
     23 CB         22.8836   -1.2309   -7.0787 C.3       4 UNK        -0.1981 
     24 N          24.2355   -2.0229   -5.1349 N.am      4 UNK        -0.4209 
     25 C          24.2087   -3.3648   -5.1997 C.2       3 UNK         0.4942 
     26 O          24.2093   -3.9909   -6.2590 O.2       3 UNK        -0.5208 
     27 CA         24.2124   -4.1554   -3.8743 C.3       3 UNK         0.0250 
     28 CB         25.5408   -4.9096   -3.7018 C.3       3 UNK        -0.1990 
     29 N          23.9760   -3.3293   -2.6869 N.am      3 UNK        -0.4232 
     30 C          22.8057   -2.7578   -2.3658 C.2       2 UNK         0.4993 
     31 O          21.7658   -2.9402   -2.9993 O.2       2 UNK        -0.5286 
     32 CA         22.7822   -1.8046   -1.1533 C.3       2 UNK         0.0209 
     33 CB         22.0312   -2.4515    0.0228 C.3       2 UNK        -0.1931 
     34 N          24.0995   -1.3525   -0.6835 N.am      2 UNK        -0.4546 
     35 C          24.9839   -0.6363   -1.3953 C.2       1 UNK         0.5154 
     36 O          24.8009   -0.2863   -2.5632 O.2       1 UNK        -0.5181 
     37 C          28.5575   -0.9508   -7.1640 C.2       5 UNK         0.5014 
     38 O          29.4662   -0.4931   -7.8620 O.2       5 UNK        -0.5248 
     39 N          28.3015   -0.5347   -5.9135 N.am      6 UNK        -0.4434 
     40 CA         28.9166    0.6251   -5.2653 C.3       6 UNK         0.0363 
     41 CB         28.4746    0.6857   -3.7945 C.3       6 UNK        -0.1936 
     42 C          28.5547    1.9454   -5.9642 C.2       6 UNK         0.5081 
     43 O          29.4458    2.7377   -6.2647 O.2       6 UNK        -0.5248 
     44 N          27.2552    2.1483   -6.2273 N.am      7 UNK        -0.4718 
     45 CA         26.7110    3.3339   -6.8978 C.3       7 UNK         0.0273 
     46 CB         25.1857    3.3792   -6.7120 C.3       7 UNK        -0.1935 
     47 C          27.0844    3.3903   -8.3872 C.2       7 UNK         0.5018 
     48 O          27.3205    4.4791   -8.9113 O.2       7 UNK        -0.5186 
     49 N          27.1801    2.2154   -9.0261 N.am      8 UNK        -0.4240 
     50 CA         27.7099    2.0420  -10.3824 C.3       8 UNK         0.0235 
     51 CB         27.3361    0.6420  -10.8948 C.3       8 UNK        -0.2000 
     52 C          29.2354    2.2528  -10.4797 C.2       8 UNK         0.4941 
     53 O          29.7454    2.3662  -11.5949 O.2       8 UNK        -0.5273 
     54 N          29.9280    2.2905   -9.3296 N.am      9 UNK        -0.4262 
     55 CA         31.3731    2.4554   -9.1520 C.3       9 UNK         0.0264 
     56 CB         31.8316    3.8537   -9.6178 C.3       9 UNK        -0.1955 
     57 C          32.1862    1.3099   -9.7803 C.2       9 UNK         0.5031 
     58 O          33.2298    1.5569  -10.3893 O.2       9 UNK        -0.5390 
     59 N          31.7179    0.0656   -9.5934 N.am      10 UNK        -0.4204 
     60 CA         32.3529   -1.1532  -10.1155 C.3       10 UNK         0.0237 
     61 CB         31.4366   -2.3552   -9.8456 C.3       10 UNK        -0.1985 
     62 C          33.7640   -1.4188   -9.5544 C.2       10 UNK         0.4970 
     63 O          34.5481   -2.1180  -10.1969 O.2       10 UNK        -0.4914 
     64 N          34.0605   -0.8431   -8.3836 N.am      11 UNK        -0.4285 
     65 CA         35.3855   -0.8232   -7.7500 C.3       11 UNK         0.1007 
     66 C          36.4043    0.1356   -8.4365 C.2       11 UNK         0.5703 
     67 N          36.0044    0.9945   -9.3690 N.am      11 UNK        -0.7361 
     68 O          37.5907    0.0919   -8.1198 O.2       11 UNK        -0.4986 
     69 C69        35.2771   -0.5248   -6.2301 C.3       12 UNK        -0.0947 
     70 S70        34.3075   -1.7839   -5.3355 S.3       12 UNK        -0.2240 
     71 C71        32.6959   -0.9526   -5.1881 C.3       12 UNK         0.0194 
     72 H72        26.7963    2.2410    3.0263 H         1 UNK         0.0906 
     73 H73        26.3028    3.4477    1.8358 H         1 UNK         0.0906 
     74 H74        25.1783    2.1788    2.3255 H         1 UNK         0.0906 
     75 H75        24.9687    0.6156    0.7286 H         1 UNK         0.3140 
     76 H76        26.8847    0.3147   -1.3799 H         1 UNK         0.1085 
     77 H77        27.9985   -1.1447    0.3445 H         1 UNK         0.0836 
     78 H78        26.5552   -2.0951    0.4997 H         1 UNK         0.0836 
     79 H79        29.7446   -1.4099   -1.1735 H         1 UNK         0.0731 
     80 H80        29.8691   -3.1267   -0.8486 H         1 UNK         0.0731 
     81 H81        31.4532   -0.9539   -2.7535 H         1 UNK         0.1312 
     82 H82        31.5573   -3.0365   -6.4972 H         1 UNK         0.1406 
     83 H83        28.8873   -4.3301   -3.4091 H         1 UNK         0.1631 
     84 H84        29.6178   -5.8407   -5.3869 H         1 UNK         0.0717 
     85 H85        30.2770   -5.0679   -6.8052 H         1 UNK         0.0717 
     86 H86        29.2681   -3.3599   -8.1469 H         1 UNK         0.0934 
     87 H87        27.7538   -3.9029   -8.7747 H         1 UNK         0.0934 
     88 H88        27.4200   -1.6467   -8.7935 H         1 UNK         0.0739 
     89 H89        25.9959   -2.8500   -6.6634 H         1 UNK         0.3093 
     90 H90        24.0873   -0.0770   -5.7481 H         1 UNK         0.0818 
     91 H91        21.9921   -1.2246   -6.4516 H         1 UNK         0.0819 
     92 H92        22.7773   -0.4206   -7.8014 H         1 UNK         0.0819 
     93 H93        22.8923   -2.1642   -7.6423 H         1 UNK         0.0819 
     94 H94        24.2947   -1.6058   -4.2116 H         1 UNK         0.3041 
     95 H95        23.4086   -4.8919   -3.9370 H         1 UNK         0.0784 
     96 H96        26.3918   -4.2286   -3.6988 H         1 UNK         0.0793 
     97 H97        25.5612   -5.4808   -2.7736 H         1 UNK         0.0793 
     98 H98        25.6963   -5.6161   -4.5183 H         1 UNK         0.0793 
     99 H99        24.7791   -3.1292   -2.1076 H         1 UNK         0.3024 
    100 H100       22.2267   -0.9182   -1.4681 H         1 UNK         0.1171 
    101 H101       21.0312   -2.7686   -0.2771 H         1 UNK         0.0786 
    102 H102       21.9098   -1.7526    0.8507 H         1 UNK         0.0786 
    103 H103       22.5527   -3.3327    0.3986 H         1 UNK         0.0786 
    104 H104       24.3457   -1.6164    0.2599 H         1 UNK         0.2977 
    105 H105       27.5671   -1.0012   -5.4033 H         1 UNK         0.3127 
    106 H106       30.0004    0.5021   -5.3038 H         1 UNK         0.0770 
    107 H107       27.3984    0.8353   -3.6994 H         1 UNK         0.0814 
    108 H108       28.9664    1.5074   -3.2721 H         1 UNK         0.0814 
    109 H109       28.7258   -0.2284   -3.2642 H         1 UNK         0.0814 
    110 H110       26.5956    1.4169   -6.0057 H         1 UNK         0.2983 
    111 H111       27.1393    4.2174   -6.4189 H         1 UNK         0.0947 
    112 H112       24.7662    4.2779   -7.1663 H         1 UNK         0.0806 
    113 H113       24.9142    3.3944   -5.6563 H         1 UNK         0.0806 
    114 H114       24.6930    2.5229   -7.1736 H         1 UNK         0.0806 
    115 H115       26.8705    1.3804   -8.5356 H         1 UNK         0.3000 
    116 H116       27.2325    2.7831  -11.0270 H         1 UNK         0.0850 
    117 H117       27.5524    0.5503  -11.9599 H         1 UNK         0.0810 
    118 H118       26.2751    0.4311  -10.7584 H         1 UNK         0.0810 
    119 H119       27.9068   -0.1334  -10.3855 H         1 UNK         0.0810 
    120 H120       29.4086    2.1763   -8.4681 H         1 UNK         0.3040 
    121 H121       31.5524    2.3953   -8.0776 H         1 UNK         0.0766 
    122 H122       32.8783    4.0261   -9.3640 H         1 UNK         0.0812 
    123 H123       31.2489    4.6408   -9.1391 H         1 UNK         0.0812 
    124 H124       31.7361    3.9736  -10.6974 H         1 UNK         0.0812 
    125 H125       30.8646   -0.0604   -9.0494 H         1 UNK         0.3205 
    126 H126       32.4513   -1.0329  -11.1963 H         1 UNK         0.0754 
    127 H127       31.8424   -3.2656  -10.2890 H         1 UNK         0.0769 
    128 H128       30.4427   -2.2026  -10.2669 H         1 UNK         0.0769 
    129 H129       31.3279   -2.5327   -8.7766 H         1 UNK         0.0769 
    130 H130       33.3512   -0.2819   -7.9410 H         1 UNK         0.2981 
    131 H131       35.8095   -1.8235   -7.8566 H         1 UNK         0.0541 
    132 H132       36.6865    1.5986   -9.7986 H         1 UNK         0.3459 
    133 H133       35.0338    1.0525   -9.6583 H         1 UNK         0.3459 
    134 H134       34.8477    0.4639   -6.0578 H         1 UNK         0.0612 
    135 H135       36.2687   -0.5068   -5.7740 H         1 UNK         0.0612 
    136 H136       32.7970   -0.0886   -4.5295 H         1 UNK         0.0624 
    137 H137       32.3823   -0.5683   -6.1590 H         1 UNK         0.0624 
@<TRIPOS>BOND
     1    1    2 1    
     2    1   72 1    
     3    1   73 1    
     4    1   74 1    
     5    2    3 2    
     6    2    4 am   BACKBONE|DICT|INTERRES
     7    4    5 1    
     8    4   75 1    
     9    5    6 1    
    10    5   35 1    
    11    5   76 1    
    12    6    7 1    
    13    6   77 1    
    14    6   78 1    
    15    7    8 1    
    16    8    9 1    
    17    8   79 1    
    18    8   80 1    
    19    9   10 ar   
    20    9   14 ar   
    21   10   11 ar   
    22   10   81 1    
    23   11   12 ar   
    24   11   71 1    
    25   12   13 ar   
    26   12   82 1    
    27   13   14 ar   
    28   13   15 1    
    29   14   83 1    
    30   15   16 1    
    31   15   84 1    
    32   15   85 1    
    33   16   17 1    
    34   17   18 1    
    35   17   86 1    
    36   17   87 1    
    37   18   19 1    
    38   18   37 1    
    39   18   88 1    
    40   19   20 am   BACKBONE|DICT|INTERRES
    41   19   89 1    
    42   20   21 2    
    43   20   22 1    
    44   22   23 1    
    45   22   24 1    
    46   22   90 1    
    47   23   91 1    
    48   23   92 1    
    49   23   93 1    
    50   24   25 am   BACKBONE|DICT|INTERRES
    51   24   94 1    
    52   25   26 2    
    53   25   27 1    
    54   27   28 1    
    55   27   29 1    
    56   27   95 1    
    57   28   96 1    
    58   28   97 1    
    59   28   98 1    
    60   29   30 am   BACKBONE|DICT|INTERRES
    61   29   99 1    
    62   30   31 2    
    63   30   32 1    
    64   32   33 1    
    65   32   34 1    
    66   32  100 1    
    67   33  101 1    
    68   33  102 1    
    69   33  103 1    
    70   34   35 am   BACKBONE|DICT|INTERRES
    71   34  104 1    
    72   35   36 2    
    73   37   38 2    
    74   37   39 am   BACKBONE|DICT|INTERRES
    75   39   40 1    
    76   39  105 1    
    77   40   41 1    
    78   40   42 1    
    79   40  106 1    
    80   41  107 1    
    81   41  108 1    
    82   41  109 1    
    83   42   43 2    
    84   42   44 am   BACKBONE|DICT|INTERRES
    85   44   45 1    
    86   44  110 1    
    87   45   46 1    
    88   45   47 1    
    89   45  111 1    
    90   46  112 1    
    91   46  113 1    
    92   46  114 1    
    93   47   48 2    
    94   47   49 am   BACKBONE|DICT|INTERRES
    95   49   50 1    
    96   49  115 1    
    97   50   51 1    
    98   50   52 1    
    99   50  116 1    
   100   51  117 1    
   101   51  118 1    
   102   51  119 1    
   103   52   53 2    
   104   52   54 am   BACKBONE|DICT|INTERRES
   105   54   55 1    
   106   54  120 1    
   107   55   56 1    
   108   55   57 1    
   109   55  121 1    
   110   56  122 1    
   111   56  123 1    
   112   56  124 1    
   113   57   58 2    
   114   57   59 am   BACKBONE|DICT|INTERRES
   115   59   60 1    
   116   59  125 1    
   117   60   61 1    
   118   60   62 1    
   119   60  126 1    
   120   61  127 1    
   121   61  128 1    
   122   61  129 1    
   123   62   63 2    
   124   62   64 am   BACKBONE|DICT|INTERRES
   125   64   65 1    
   126   64  130 1    
   127   65   66 1    
   128   65   69 1    
   129   65  131 1    
   130   66   67 am   BACKBONE|DICT|INTERRES
   131   66   68 2    
   132   67  132 1    
   133   67  133 1    
   134   69   70 1    
   135   69  134 1    
   136   69  135 1    
   137   70   71 1    
   138   71  136 1    
   139   71  137 1    
@<TRIPOS>SUBSTRUCTURE
     1 UNK         1 GROUP             0       ****    0 ROOT    
