@<TRIPOS>MOLECULE
3R137
137   139    1
SMALL
USER_CHARGES


@<TRIPOS>ATOM
      1 CA         24.0031   -5.8326   -4.4633 C.3       0 UNK        -0.2020 
      2 C          24.5638   -5.0994   -3.2549 C.2       0 UNK         0.4855 
      3 O          23.8257   -4.3929   -2.5675 O.2       0 UNK        -0.5197 
      4 N          25.8687   -5.2655   -3.0027 N.am      1 UNK        -0.4892 
      5 CA         26.6432   -4.6709   -1.9055 C.3       1 UNK         0.0835 
      6 C6         28.1067   -5.1761   -1.9704 C.3       12 UNK        -0.0855 
      7 S7         29.0630   -4.8465   -0.4519 S.3       12 UNK        -0.2931 
      8 C8         30.7670   -4.7744   -1.1068 C.3       12 UNK         0.0378 
      9 C9         30.9612   -3.6254   -2.0884 C.ar      12 UNK        -0.0802 
     10 C10        31.3059   -3.8736   -3.4209 C.ar      12 UNK        -0.0944 
     11 C11        31.4370   -2.8248   -4.3389 C.ar      12 UNK        -0.0787 
     12 C12        31.2056   -1.5114   -3.9024 C.ar      12 UNK        -0.0862 
     13 C13        30.8817   -1.2499   -2.5684 C.ar      12 UNK        -0.0733 
     14 C14        30.7772   -2.3093   -1.6648 C.ar      12 UNK        -0.0832 
     15 C15        30.6213    0.1701   -2.0931 C.3       12 UNK         0.0240 
     16 S16        28.8911    0.3438   -1.5634 S.3       12 UNK        -0.2522 
     17 C17        28.2687    1.7040   -2.5967 C.3       12 UNK        -0.0967 
     18 CA         28.2450    1.4455   -4.1285 C.3       5 UNK         0.0660 
     19 N          27.7498    0.1206   -4.5251 N.am      5 UNK        -0.4015 
     20 C          27.7687   -0.3369   -5.7893 C.2       4 UNK         0.4946 
     21 O          28.2993    0.2612   -6.7220 O.2       4 UNK        -0.5353 
     22 CA         27.0084   -1.6364   -6.0932 C.3       4 UNK         0.0277 
     23 CB         27.9130   -2.8680   -5.9202 C.3       4 UNK        -0.1981 
     24 N          25.8005   -1.7552   -5.2733 N.am      4 UNK        -0.4209 
     25 C          24.6977   -1.0122   -5.4637 C.2       3 UNK         0.4942 
     26 O          24.5672   -0.2184   -6.3941 O.2       3 UNK        -0.5208 
     27 CA         23.5659   -1.1266   -4.4273 C.3       3 UNK         0.0250 
     28 CB         22.5218   -2.1627   -4.8687 C.3       3 UNK        -0.1990 
     29 N          24.0549   -1.4437   -3.0841 N.am      3 UNK        -0.4232 
     30 C          24.7795   -0.5940   -2.3399 C.2       2 UNK         0.4993 
     31 O          25.0427    0.5581   -2.6897 O.2       2 UNK        -0.5286 
     32 CA         25.3558   -1.1331   -1.0164 C.3       2 UNK         0.0209 
     33 CB         24.3802   -0.8678    0.1405 C.3       2 UNK        -0.1931 
     34 N          25.6962   -2.5618   -1.0516 N.am      2 UNK        -0.4546 
     35 C          26.5415   -3.1286   -1.9258 C.2       1 UNK         0.5154 
     36 O          27.1508   -2.4896   -2.7833 O.2       1 UNK        -0.5181 
     37 C          27.4400    2.5655   -4.8169 C.2       5 UNK         0.5014 
     38 O          28.0353    3.4690   -5.4048 O.2       5 UNK        -0.5248 
     39 N          26.1027    2.4728   -4.7381 N.am      6 UNK        -0.4434 
     40 CA         25.1585    3.4297   -5.3227 C.3       6 UNK         0.0363 
     41 CB         23.7293    3.0749   -4.8830 C.3       6 UNK        -0.1936 
     42 C          25.2482    3.5204   -6.8560 C.2       6 UNK         0.5081 
     43 O          25.2051    4.6236   -7.4007 O.2       6 UNK        -0.5248 
     44 N          25.3928    2.3676   -7.5224 N.am      7 UNK        -0.4718 
     45 CA         25.5627    2.2616   -8.9745 C.3       7 UNK         0.0273 
     46 CB         25.1557    0.8451   -9.4145 C.3       7 UNK        -0.1935 
     47 C          26.9908    2.5747   -9.4599 C.2       7 UNK         0.5018 
     48 O          27.2047    2.6252  -10.6723 O.2       7 UNK        -0.5186 
     49 N          27.9505    2.7163   -8.5335 N.am      8 UNK        -0.4240 
     50 CA         29.4053    2.8427   -8.7120 C.3       8 UNK         0.0235 
     51 CB         29.7869    4.0713   -9.5603 C.3       8 UNK        -0.2000 
     52 C          30.0746    1.5590   -9.2365 C.2       8 UNK         0.4941 
     53 O          31.1109    1.1675   -8.6994 O.2       8 UNK        -0.5273 
     54 N          29.4761    0.9412  -10.2679 N.am      9 UNK        -0.4262 
     55 CA         29.6863   -0.4186  -10.7899 C.3       9 UNK         0.0264 
     56 CB         28.9870   -1.4272   -9.8550 C.3       9 UNK        -0.1955 
     57 C          31.1457   -0.8198  -11.0983 C.2       9 UNK         0.5031 
     58 O          31.4536   -2.0130  -11.1232 O.2       9 UNK        -0.5390 
     59 N          32.0138    0.1769  -11.3277 N.am      10 UNK        -0.4204 
     60 CA         33.4701    0.0732  -11.4815 C.3       10 UNK         0.0237 
     61 CB         33.8365   -0.6551  -12.7932 C.3       10 UNK        -0.1985 
     62 C          34.1816   -0.5199  -10.2436 C.2       10 UNK         0.4970 
     63 O          35.2365   -1.1402  -10.3920 O.2       10 UNK        -0.4914 
     64 N          33.6118   -0.3125   -9.0467 N.am      11 UNK        -0.4285 
     65 CA         34.1671   -0.7799   -7.7644 C.3       11 UNK         0.1007 
     66 C          35.4464   -0.0239   -7.2993 C.2       11 UNK         0.5703 
     67 N          35.7789    1.1343   -7.8584 N.am      11 UNK        -0.7361 
     68 O          36.1556   -0.5036   -6.4178 O.2       11 UNK        -0.4986 
     69 C69        33.0992   -0.7812   -6.6397 C.3       12 UNK        -0.0947 
     70 S70        31.6644   -1.8455   -7.0152 S.3       12 UNK        -0.2240 
     71 C71        31.8344   -3.1762   -5.7768 C.3       12 UNK         0.0194 
     72 H72        24.1527   -5.2439   -5.3678 H         1 UNK         0.0906 
     73 H73        24.4867   -6.7998   -4.5989 H         1 UNK         0.0906 
     74 H74        22.9343   -6.0074   -4.3416 H         1 UNK         0.0906 
     75 H75        26.4045   -5.8460   -3.6322 H         1 UNK         0.3140 
     76 H76        26.2029   -5.0321   -0.9737 H         1 UNK         0.1085 
     77 H77        28.1210   -6.2573   -2.1184 H         1 UNK         0.0836 
     78 H78        28.6131   -4.7525   -2.8393 H         1 UNK         0.0836 
     79 H79        31.0096   -5.7310   -1.5723 H         1 UNK         0.0731 
     80 H80        31.4616   -4.6522   -0.2746 H         1 UNK         0.0731 
     81 H81        31.4636   -4.8917   -3.7501 H         1 UNK         0.1312 
     82 H82        31.2729   -0.6820   -4.5901 H         1 UNK         0.1406 
     83 H83        30.5073   -2.1112   -0.6362 H         1 UNK         0.1631 
     84 H84        30.8643    0.8963   -2.8691 H         1 UNK         0.0717 
     85 H85        31.2747    0.3938   -1.2488 H         1 UNK         0.0717 
     86 H86        27.2670    1.9269   -2.2242 H         1 UNK         0.0934 
     87 H87        28.8634    2.5936   -2.3797 H         1 UNK         0.0934 
     88 H88        29.2705    1.5144   -4.4966 H         1 UNK         0.0739 
     89 H89        27.3550   -0.4604   -3.7955 H         1 UNK         0.3093 
     90 H90        26.6987   -1.6011   -7.1401 H         1 UNK         0.0818 
     91 H91        28.7125   -2.8580   -6.6616 H         1 UNK         0.0819 
     92 H92        28.3927   -2.8955   -4.9420 H         1 UNK         0.0819 
     93 H93        27.3583   -3.7966   -6.0530 H         1 UNK         0.0819 
     94 H94        25.8872   -2.3087   -4.4294 H         1 UNK         0.3041 
     95 H95        23.0686   -0.1558   -4.3773 H         1 UNK         0.0784 
     96 H96        22.9558   -3.1551   -4.9777 H         1 UNK         0.0793 
     97 H97        21.7018   -2.2311   -4.1537 H         1 UNK         0.0793 
     98 H98        22.0900   -1.8906   -5.8329 H         1 UNK         0.0793 
     99 H99        23.9005   -2.3892   -2.7443 H         1 UNK         0.3024 
    100 H100       26.2757   -0.5820   -0.8185 H         1 UNK         0.1171 
    101 H101       24.8152   -1.1499    1.0995 H         1 UNK         0.0786 
    102 H102       24.1270    0.1918    0.2012 H         1 UNK         0.0786 
    103 H103       23.4475   -1.4199    0.0173 H         1 UNK         0.0786 
    104 H104       25.1860   -3.1609   -0.4183 H         1 UNK         0.2977 
    105 H105       25.7038    1.7152   -4.1895 H         1 UNK         0.3127 
    106 H106       25.4029    4.4148   -4.9198 H         1 UNK         0.0770 
    107 H107       23.4198    2.1021   -5.2657 H         1 UNK         0.0814 
    108 H108       23.0145    3.8117   -5.2519 H         1 UNK         0.0814 
    109 H109       23.6406    3.0514   -3.7966 H         1 UNK         0.0814 
    110 H110       25.3474    1.4925   -7.0064 H         1 UNK         0.2983 
    111 H111       24.8935    2.9759   -9.4592 H         1 UNK         0.0947 
    112 H112       25.2241    0.7320  -10.4973 H         1 UNK         0.0806 
    113 H113       24.1270    0.6219   -9.1307 H         1 UNK         0.0806 
    114 H114       25.7979    0.0868   -8.9646 H         1 UNK         0.0806 
    115 H115       27.6648    2.6005   -7.5688 H         1 UNK         0.3000 
    116 H116       29.7992    3.0043   -7.7070 H         1 UNK         0.0850 
    117 H117       30.8689    4.2077   -9.5764 H         1 UNK         0.0810 
    118 H118       29.3514    4.9832   -9.1518 H         1 UNK         0.0810 
    119 H119       29.4588    3.9775  -10.5956 H         1 UNK         0.0810 
    120 H120       28.6644    1.4253  -10.6454 H         1 UNK         0.3040 
    121 H121       29.1693   -0.4519  -11.7498 H         1 UNK         0.0766 
    122 H122       29.4364   -1.4265   -8.8624 H         1 UNK         0.0812 
    123 H123       29.0447   -2.4447  -10.2428 H         1 UNK         0.0812 
    124 H124       27.9303   -1.1884   -9.7360 H         1 UNK         0.0812 
    125 H125       31.6479    1.1166  -11.2623 H         1 UNK         0.3205 
    126 H126       33.8347    1.0978  -11.5662 H         1 UNK         0.0754 
    127 H127       34.9083   -0.5983  -12.9873 H         1 UNK         0.0769 
    128 H128       33.3307   -0.2090  -13.6494 H         1 UNK         0.0769 
    129 H129       33.5691   -1.7116  -12.7585 H         1 UNK         0.0769 
    130 H130       32.7297    0.1916   -8.9877 H         1 UNK         0.2981 
    131 H131       34.4773   -1.8162   -7.9119 H         1 UNK         0.0541 
    132 H132       35.2002    1.5388   -8.5764 H         1 UNK         0.3459 
    133 H133       36.6123    1.6103   -7.5510 H         1 UNK         0.3459 
    134 H134       32.7304    0.2319   -6.4698 H         1 UNK         0.0612 
    135 H135       33.5387   -1.1066   -5.6949 H         1 UNK         0.0612 
    136 H136       31.2153   -4.0091   -6.1131 H         1 UNK         0.0624 
    137 H137       32.8642   -3.5359   -5.7849 H         1 UNK         0.0624 
@<TRIPOS>BOND
     1    1    2 1    
     2    1   72 1    
     3    1   73 1    
     4    1   74 1    
     5    2    3 2    
     6    2    4 am   BACKBONE|DICT|INTERRES
     7    4    5 1    
     8    4   75 1    
     9    5    6 1    
    10    5   35 1    
    11    5   76 1    
    12    6    7 1    
    13    6   77 1    
    14    6   78 1    
    15    7    8 1    
    16    8    9 1    
    17    8   79 1    
    18    8   80 1    
    19    9   10 ar   
    20    9   14 ar   
    21   10   11 ar   
    22   10   81 1    
    23   11   12 ar   
    24   11   71 1    
    25   12   13 ar   
    26   12   82 1    
    27   13   14 ar   
    28   13   15 1    
    29   14   83 1    
    30   15   16 1    
    31   15   84 1    
    32   15   85 1    
    33   16   17 1    
    34   17   18 1    
    35   17   86 1    
    36   17   87 1    
    37   18   19 1    
    38   18   37 1    
    39   18   88 1    
    40   19   20 am   BACKBONE|DICT|INTERRES
    41   19   89 1    
    42   20   21 2    
    43   20   22 1    
    44   22   23 1    
    45   22   24 1    
    46   22   90 1    
    47   23   91 1    
    48   23   92 1    
    49   23   93 1    
    50   24   25 am   BACKBONE|DICT|INTERRES
    51   24   94 1    
    52   25   26 2    
    53   25   27 1    
    54   27   28 1    
    55   27   29 1    
    56   27   95 1    
    57   28   96 1    
    58   28   97 1    
    59   28   98 1    
    60   29   30 am   BACKBONE|DICT|INTERRES
    61   29   99 1    
    62   30   31 2    
    63   30   32 1    
    64   32   33 1    
    65   32   34 1    
    66   32  100 1    
    67   33  101 1    
    68   33  102 1    
    69   33  103 1    
    70   34   35 am   BACKBONE|DICT|INTERRES
    71   34  104 1    
    72   35   36 2    
    73   37   38 2    
    74   37   39 am   BACKBONE|DICT|INTERRES
    75   39   40 1    
    76   39  105 1    
    77   40   41 1    
    78   40   42 1    
    79   40  106 1    
    80   41  107 1    
    81   41  108 1    
    82   41  109 1    
    83   42   43 2    
    84   42   44 am   BACKBONE|DICT|INTERRES
    85   44   45 1    
    86   44  110 1    
    87   45   46 1    
    88   45   47 1    
    89   45  111 1    
    90   46  112 1    
    91   46  113 1    
    92   46  114 1    
    93   47   48 2    
    94   47   49 am   BACKBONE|DICT|INTERRES
    95   49   50 1    
    96   49  115 1    
    97   50   51 1    
    98   50   52 1    
    99   50  116 1    
   100   51  117 1    
   101   51  118 1    
   102   51  119 1    
   103   52   53 2    
   104   52   54 am   BACKBONE|DICT|INTERRES
   105   54   55 1    
   106   54  120 1    
   107   55   56 1    
   108   55   57 1    
   109   55  121 1    
   110   56  122 1    
   111   56  123 1    
   112   56  124 1    
   113   57   58 2    
   114   57   59 am   BACKBONE|DICT|INTERRES
   115   59   60 1    
   116   59  125 1    
   117   60   61 1    
   118   60   62 1    
   119   60  126 1    
   120   61  127 1    
   121   61  128 1    
   122   61  129 1    
   123   62   63 2    
   124   62   64 am   BACKBONE|DICT|INTERRES
   125   64   65 1    
   126   64  130 1    
   127   65   66 1    
   128   65   69 1    
   129   65  131 1    
   130   66   67 am   BACKBONE|DICT|INTERRES
   131   66   68 2    
   132   67  132 1    
   133   67  133 1    
   134   69   70 1    
   135   69  134 1    
   136   69  135 1    
   137   70   71 1    
   138   71  136 1    
   139   71  137 1    
@<TRIPOS>SUBSTRUCTURE
     1 UNK         1 GROUP             0       ****    0 ROOT    
