@<TRIPOS>MOLECULE
3R137
137   139    1
SMALL
USER_CHARGES


@<TRIPOS>ATOM
      1 CA         25.2425   -2.5195    3.3511 C.3       0 UNK        -0.2020 
      2 C          26.3231   -2.1000    2.3658 C.2       0 UNK         0.4855 
      3 O          26.3752   -0.9335    1.9742 O.2       0 UNK        -0.5197 
      4 N          27.1916   -3.0382    1.9668 N.am      1 UNK        -0.4892 
      5 CA         28.2433   -2.8262    0.9686 C.3       1 UNK         0.0835 
      6 C6         29.2919   -3.9730    1.0099 C.3       12 UNK        -0.0855 
      7 S7         30.6268   -3.8312   -0.2403 S.3       12 UNK        -0.2931 
      8 C8         30.0907   -5.0725   -1.4751 C.3       12 UNK         0.0378 
      9 C9         30.3452   -4.6826   -2.9327 C.ar      12 UNK        -0.0802 
     10 C10        31.4980   -3.9865   -3.3243 C.ar      12 UNK        -0.0944 
     11 C11        31.7356   -3.6963   -4.6729 C.ar      12 UNK        -0.0787 
     12 C12        30.8205   -4.1334   -5.6339 C.ar      12 UNK        -0.0862 
     13 C13        29.6511   -4.7985   -5.2622 C.ar      12 UNK        -0.0733 
     14 C14        29.4217   -5.0748   -3.9114 C.ar      12 UNK        -0.0832 
     15 C15        28.6477   -5.2142   -6.3332 C.3       12 UNK         0.0240 
     16 S16        27.2652   -4.0335   -6.5068 S.3       12 UNK        -0.2522 
     17 C17        28.1372   -2.4321   -6.5488 C.3       12 UNK        -0.0967 
     18 CA         27.3686   -1.2875   -7.2470 C.3       5 UNK         0.0660 
     19 N          25.9999   -1.1046   -6.7513 N.am      5 UNK        -0.4015 
     20 C          25.0818   -0.3205   -7.3398 C.2       4 UNK         0.4946 
     21 O          25.3007    0.3160   -8.3736 O.2       4 UNK        -0.5353 
     22 CA         23.7169   -0.1637   -6.6422 C.3       4 UNK         0.0277 
     23 CB         22.7111   -1.1772   -7.2094 C.3       4 UNK        -0.1981 
     24 N          23.7702   -0.2923   -5.1812 N.am      4 UNK        -0.4209 
     25 C          24.4894    0.4914   -4.3645 C.2       3 UNK         0.4942 
     26 O          25.1633    1.4428   -4.7593 O.2       3 UNK        -0.5208 
     27 CA         24.5435    0.1140   -2.8687 C.3       3 UNK         0.0250 
     28 CB         23.4724   -0.9123   -2.4334 C.3       3 UNK        -0.1990 
     29 N          25.8858   -0.3563   -2.4969 N.am      3 UNK        -0.4232 
     30 C          26.5710   -1.3376   -3.1040 C.2       2 UNK         0.4993 
     31 O          26.1170   -2.0316   -4.0134 O.2       2 UNK        -0.5286 
     32 CA         28.0156   -1.5690   -2.6429 C.3       2 UNK         0.0209 
     33 CB         28.9486   -0.4537   -3.1443 C.3       2 UNK        -0.1931 
     34 N          28.1829   -1.7085   -1.1988 N.am      2 UNK        -0.4546 
     35 C          27.6276   -2.6600   -0.4371 C.2       1 UNK         0.5154 
     36 O          26.7460   -3.4362   -0.8142 O.2       1 UNK        -0.5181 
     37 C          28.2047    0.0067   -7.1793 C.2       5 UNK         0.5014 
     38 O          29.2017    0.1044   -7.8964 O.2       5 UNK        -0.5248 
     39 N          27.7969    0.9907   -6.3599 N.am      6 UNK        -0.4434 
     40 CA         28.4443    2.3018   -6.2963 C.3       6 UNK         0.0363 
     41 CB         27.9106    3.1053   -5.1020 C.3       6 UNK        -0.1936 
     42 C          28.2999    3.0974   -7.6040 C.2       6 UNK         0.5081 
     43 O          29.1845    3.8916   -7.9207 O.2       6 UNK        -0.5248 
     44 N          27.2170    2.8374   -8.3489 N.am      7 UNK        -0.4718 
     45 CA         27.0024    3.3374   -9.7022 C.3       7 UNK         0.0273 
     46 CB         25.5171    3.6905   -9.8880 C.3       7 UNK        -0.1935 
     47 C          27.4508    2.2985  -10.7403 C.2       7 UNK         0.5018 
     48 O          28.2058    2.6459  -11.6478 O.2       7 UNK        -0.5186 
     49 N          26.9753    1.0507  -10.6005 N.am      8 UNK        -0.4240 
     50 CA         27.1277   -0.0019  -11.6110 C.3       8 UNK         0.0235 
     51 CB         26.1468   -1.1488  -11.3169 C.3       8 UNK        -0.2000 
     52 C          28.5596   -0.5389  -11.7803 C.2       8 UNK         0.4941 
     53 O          28.9358   -0.8682  -12.9060 O.2       8 UNK        -0.5273 
     54 N          29.3255   -0.6257  -10.6845 N.am      9 UNK        -0.4262 
     55 CA         30.7089   -1.1180  -10.6699 C.3       9 UNK         0.0264 
     56 CB         30.8018   -2.3116   -9.7023 C.3       9 UNK        -0.1955 
     57 C          31.7147   -0.0211  -10.2759 C.2       9 UNK         0.5031 
     58 O          32.9121   -0.3053  -10.2235 O.2       9 UNK        -0.5390 
     59 N          31.2221    1.1972  -10.0009 N.am      10 UNK        -0.4204 
     60 CA         31.9586    2.3744   -9.5248 C.3       10 UNK         0.0237 
     61 CB         32.9553    2.8746  -10.5930 C.3       10 UNK        -0.1985 
     62 C          32.6092    2.1769   -8.1382 C.2       10 UNK         0.4970 
     63 O          33.6442    2.7856   -7.8611 O.2       10 UNK        -0.4914 
     64 N          31.9912    1.3485   -7.2844 N.am      11 UNK        -0.4285 
     65 CA         32.4558    1.0429   -5.9178 C.3       11 UNK         0.1007 
     66 C          32.2017    2.1649   -4.8642 C.2       11 UNK         0.5703 
     67 N          31.6701    3.3266   -5.2267 N.am      11 UNK        -0.7361 
     68 O          32.5129    1.9865   -3.6894 O.2       11 UNK        -0.4986 
     69 C69        31.9342   -0.3421   -5.4456 C.3       12 UNK        -0.0947 
     70 S70        32.7088   -1.6958   -6.3889 S.3       12 UNK        -0.2240 
     71 C71        33.0014   -2.9539   -5.0947 C.3       12 UNK         0.0194 
     72 H72        25.3225   -3.5722    3.6218 H         1 UNK         0.0906 
     73 H73        25.3167   -1.9285    4.2636 H         1 UNK         0.0906 
     74 H74        24.2562   -2.3550    2.9179 H         1 UNK         0.0906 
     75 H75        27.0817   -3.9869    2.2965 H         1 UNK         0.3140 
     76 H76        28.7575   -1.8977    1.2287 H         1 UNK         0.1085 
     77 H77        29.7673   -3.9879    1.9920 H         1 UNK         0.0836 
     78 H78        28.8014   -4.9433    0.9123 H         1 UNK         0.0836 
     79 H79        29.0261   -5.2705   -1.3432 H         1 UNK         0.0731 
     80 H80        30.6030   -6.0131   -1.2690 H         1 UNK         0.0731 
     81 H81        32.2212   -3.6829   -2.5802 H         1 UNK         0.1312 
     82 H82        31.0110   -3.9380   -6.6801 H         1 UNK         0.1406 
     83 H83        28.5225   -5.6045   -3.6263 H         1 UNK         0.1631 
     84 H84        28.2435   -6.1996   -6.0973 H         1 UNK         0.0717 
     85 H85        29.1457   -5.3154   -7.2988 H         1 UNK         0.0717 
     86 H86        28.3901   -2.1682   -5.5231 H         1 UNK         0.0934 
     87 H87        29.0861   -2.5810   -7.0629 H         1 UNK         0.0934 
     88 H88        27.2910   -1.5515   -8.3016 H         1 UNK         0.0739 
     89 H89        25.7823   -1.5710   -5.8732 H         1 UNK         0.3093 
     90 H90        23.3548    0.8413   -6.8686 H         1 UNK         0.0818 
     91 H91        21.7125   -1.0174   -6.8022 H         1 UNK         0.0819 
     92 H92        22.6347   -1.0852   -8.2940 H         1 UNK         0.0819 
     93 H93        23.0048   -2.2046   -6.9897 H         1 UNK         0.0819 
     94 H94        23.2829   -1.0781   -4.7751 H         1 UNK         0.3041 
     95 H95        24.3662    1.0366   -2.3141 H         1 UNK         0.0784 
     96 H96        22.4678   -0.5635   -2.6767 H         1 UNK         0.0793 
     97 H97        23.6128   -1.8867   -2.9028 H         1 UNK         0.0793 
     98 H98        23.5021   -1.0668   -1.3546 H         1 UNK         0.0793 
     99 H99        26.3512    0.1641   -1.7665 H         1 UNK         0.3024 
    100 H100       28.3412   -2.5094   -3.0925 H         1 UNK         0.1171 
    101 H101       28.8405   -0.2974   -4.2149 H         1 UNK         0.0786 
    102 H102       28.7435    0.5002   -2.6574 H         1 UNK         0.0786 
    103 H103       29.9939   -0.7048   -2.9625 H         1 UNK         0.0786 
    104 H104       28.9032   -1.1347   -0.7846 H         1 UNK         0.2977 
    105 H105       26.9449    0.8803   -5.8204 H         1 UNK         0.3127 
    106 H106       29.5050    2.1222   -6.1357 H         1 UNK         0.0770 
    107 H107       26.8653    3.3844   -5.2373 H         1 UNK         0.0814 
    108 H108       28.4773    4.0284   -4.9745 H         1 UNK         0.0814 
    109 H109       27.9929    2.5431   -4.1720 H         1 UNK         0.0814 
    110 H110       26.5556    2.1485   -8.0127 H         1 UNK         0.2983 
    111 H111       27.5865    4.2467   -9.8632 H         1 UNK         0.0947 
    112 H112       25.3261    4.0545  -10.8985 H         1 UNK         0.0806 
    113 H113       25.2106    4.4769   -9.1981 H         1 UNK         0.0806 
    114 H114       24.8670    2.8303   -9.7219 H         1 UNK         0.0806 
    115 H115       26.3533    0.8438   -9.8211 H         1 UNK         0.3000 
    116 H116       26.8400    0.4330  -12.5709 H         1 UNK         0.0850 
    117 H117       26.1932   -1.9103  -12.0967 H         1 UNK         0.0810 
    118 H118       25.1180   -0.7903  -11.2767 H         1 UNK         0.0810 
    119 H119       26.3643   -1.6416  -10.3707 H         1 UNK         0.0810 
    120 H120       28.9576   -0.3319   -9.7850 H         1 UNK         0.3040 
    121 H121       31.0019   -1.4674  -11.6618 H         1 UNK         0.0766 
    122 H122       30.6438   -2.0022   -8.6702 H         1 UNK         0.0812 
    123 H123       31.7877   -2.7758   -9.7491 H         1 UNK         0.0812 
    124 H124       30.0683   -3.0813   -9.9423 H         1 UNK         0.0812 
    125 H125       30.2229    1.3167  -10.0842 H         1 UNK         0.3205 
    126 H126       31.2133    3.1587   -9.3945 H         1 UNK         0.0754 
    127 H127       33.3844    3.8361  -10.3085 H         1 UNK         0.0769 
    128 H128       32.4662    3.0134  -11.5572 H         1 UNK         0.0769 
    129 H129       33.7835    2.1793  -10.7332 H         1 UNK         0.0769 
    130 H130       31.1418    0.8816   -7.5813 H         1 UNK         0.2981 
    131 H131       33.5442    0.9705   -5.9608 H         1 UNK         0.0541 
    132 H132       31.4425    3.5125   -6.1900 H         1 UNK         0.3459 
    133 H133       31.5322    4.0394   -4.5284 H         1 UNK         0.3459 
    134 H134       30.8520   -0.4092   -5.5576 H         1 UNK         0.0612 
    135 H135       32.1444   -0.5025   -4.3871 H         1 UNK         0.0612 
    136 H136       33.7120   -3.6850   -5.4818 H         1 UNK         0.0624 
    137 H137       33.4824   -2.4815   -4.2369 H         1 UNK         0.0624 
@<TRIPOS>BOND
     1    1    2 1    
     2    1   72 1    
     3    1   73 1    
     4    1   74 1    
     5    2    3 2    
     6    2    4 am   BACKBONE|DICT|INTERRES
     7    4    5 1    
     8    4   75 1    
     9    5    6 1    
    10    5   35 1    
    11    5   76 1    
    12    6    7 1    
    13    6   77 1    
    14    6   78 1    
    15    7    8 1    
    16    8    9 1    
    17    8   79 1    
    18    8   80 1    
    19    9   10 ar   
    20    9   14 ar   
    21   10   11 ar   
    22   10   81 1    
    23   11   12 ar   
    24   11   71 1    
    25   12   13 ar   
    26   12   82 1    
    27   13   14 ar   
    28   13   15 1    
    29   14   83 1    
    30   15   16 1    
    31   15   84 1    
    32   15   85 1    
    33   16   17 1    
    34   17   18 1    
    35   17   86 1    
    36   17   87 1    
    37   18   19 1    
    38   18   37 1    
    39   18   88 1    
    40   19   20 am   BACKBONE|DICT|INTERRES
    41   19   89 1    
    42   20   21 2    
    43   20   22 1    
    44   22   23 1    
    45   22   24 1    
    46   22   90 1    
    47   23   91 1    
    48   23   92 1    
    49   23   93 1    
    50   24   25 am   BACKBONE|DICT|INTERRES
    51   24   94 1    
    52   25   26 2    
    53   25   27 1    
    54   27   28 1    
    55   27   29 1    
    56   27   95 1    
    57   28   96 1    
    58   28   97 1    
    59   28   98 1    
    60   29   30 am   BACKBONE|DICT|INTERRES
    61   29   99 1    
    62   30   31 2    
    63   30   32 1    
    64   32   33 1    
    65   32   34 1    
    66   32  100 1    
    67   33  101 1    
    68   33  102 1    
    69   33  103 1    
    70   34   35 am   BACKBONE|DICT|INTERRES
    71   34  104 1    
    72   35   36 2    
    73   37   38 2    
    74   37   39 am   BACKBONE|DICT|INTERRES
    75   39   40 1    
    76   39  105 1    
    77   40   41 1    
    78   40   42 1    
    79   40  106 1    
    80   41  107 1    
    81   41  108 1    
    82   41  109 1    
    83   42   43 2    
    84   42   44 am   BACKBONE|DICT|INTERRES
    85   44   45 1    
    86   44  110 1    
    87   45   46 1    
    88   45   47 1    
    89   45  111 1    
    90   46  112 1    
    91   46  113 1    
    92   46  114 1    
    93   47   48 2    
    94   47   49 am   BACKBONE|DICT|INTERRES
    95   49   50 1    
    96   49  115 1    
    97   50   51 1    
    98   50   52 1    
    99   50  116 1    
   100   51  117 1    
   101   51  118 1    
   102   51  119 1    
   103   52   53 2    
   104   52   54 am   BACKBONE|DICT|INTERRES
   105   54   55 1    
   106   54  120 1    
   107   55   56 1    
   108   55   57 1    
   109   55  121 1    
   110   56  122 1    
   111   56  123 1    
   112   56  124 1    
   113   57   58 2    
   114   57   59 am   BACKBONE|DICT|INTERRES
   115   59   60 1    
   116   59  125 1    
   117   60   61 1    
   118   60   62 1    
   119   60  126 1    
   120   61  127 1    
   121   61  128 1    
   122   61  129 1    
   123   62   63 2    
   124   62   64 am   BACKBONE|DICT|INTERRES
   125   64   65 1    
   126   64  130 1    
   127   65   66 1    
   128   65   69 1    
   129   65  131 1    
   130   66   67 am   BACKBONE|DICT|INTERRES
   131   66   68 2    
   132   67  132 1    
   133   67  133 1    
   134   69   70 1    
   135   69  134 1    
   136   69  135 1    
   137   70   71 1    
   138   71  136 1    
   139   71  137 1    
@<TRIPOS>SUBSTRUCTURE
     1 UNK         1 GROUP             0       ****    0 ROOT    
