@<TRIPOS>MOLECULE
3R137
137   139    1
SMALL
USER_CHARGES


@<TRIPOS>ATOM
      1 CA         23.3609   -5.7983   -2.0693 C.3       0 UNK        -0.2020 
      2 C          24.6889   -5.0571   -2.0667 C.2       0 UNK         0.4855 
      3 O          25.1655   -4.6598   -3.1287 O.2       0 UNK        -0.5197 
      4 N          25.2804   -4.8546   -0.8804 N.am      1 UNK        -0.4892 
      5 CA         26.5662   -4.1760   -0.6588 C.3       1 UNK         0.0835 
      6 C6         27.7691   -5.0069   -1.1958 C.3       12 UNK        -0.0855 
      7 S7         29.2422   -4.8712   -0.1297 S.3       12 UNK        -0.2931 
      8 C8         30.6054   -5.0629   -1.3352 C.3       12 UNK         0.0378 
      9 C9         30.9575   -3.8031   -2.1282 C.ar      12 UNK        -0.0802 
     10 C10        31.5452   -3.9320   -3.3922 C.ar      12 UNK        -0.0944 
     11 C11        31.9060   -2.8017   -4.1360 C.ar      12 UNK        -0.0787 
     12 C12        31.6833   -1.5315   -3.5981 C.ar      12 UNK        -0.0862 
     13 C13        31.1101   -1.3823   -2.3341 C.ar      12 UNK        -0.0733 
     14 C14        30.7574   -2.5205   -1.6039 C.ar      12 UNK        -0.0832 
     15 C15        30.9049    0.0016   -1.7331 C.3       12 UNK         0.0240 
     16 S16        29.1525    0.3191   -1.3616 S.3       12 UNK        -0.2522 
     17 C17        28.6127    1.3884   -2.7330 C.3       12 UNK        -0.0967 
     18 CA         28.7364    0.8066   -4.1669 C.3       5 UNK         0.0660 
     19 N          28.1563   -0.5359   -4.3317 N.am      5 UNK        -0.4015 
     20 C          28.2178   -1.2463   -5.4720 C.2       4 UNK         0.4946 
     21 O          28.8359   -0.8770   -6.4711 O.2       4 UNK        -0.5353 
     22 CA         27.4026   -2.5481   -5.5519 C.3       4 UNK         0.0277 
     23 CB         28.1634   -3.7220   -4.9222 C.3       4 UNK        -0.1981 
     24 N          26.0895   -2.4101   -4.9228 N.am      4 UNK        -0.4209 
     25 C          25.0882   -1.6678   -5.4181 C.2       3 UNK         0.4942 
     26 O          25.1317   -1.0983   -6.5074 O.2       3 UNK        -0.5208 
     27 CA         23.8435   -1.4880   -4.5325 C.3       3 UNK         0.0250 
     28 CB         22.8183   -2.6054   -4.7831 C.3       3 UNK        -0.1990 
     29 N          24.1787   -1.4199   -3.1081 N.am      3 UNK        -0.4232 
     30 C          24.8707   -0.4161   -2.5491 C.2       2 UNK         0.4993 
     31 O          25.2360    0.5846   -3.1660 O.2       2 UNK        -0.5286 
     32 CA         25.2572   -0.5706   -1.0680 C.3       2 UNK         0.0209 
     33 CB         24.1683    0.0250   -0.1620 C.3       2 UNK        -0.1931 
     34 N          25.5222   -1.9588   -0.6711 N.am      2 UNK        -0.4546 
     35 C          26.5166   -2.7141   -1.1635 C.2       1 UNK         0.5154 
     36 O          27.2991   -2.3125   -2.0244 O.2       1 UNK        -0.5181 
     37 C          28.1372    1.8220   -5.1646 C.2       5 UNK         0.5014 
     38 O          28.8715    2.6364   -5.7233 O.2       5 UNK        -0.5248 
     39 N          26.8137    1.7538   -5.3623 N.am      6 UNK        -0.4434 
     40 CA         26.0493    2.6157   -6.2650 C.3       6 UNK         0.0363 
     41 CB         24.5668    2.5566   -5.8606 C.3       6 UNK        -0.1936 
     42 C          26.2100    2.2799   -7.7607 C.2       6 UNK         0.5081 
     43 O          25.7340    3.0565   -8.5913 O.2       6 UNK        -0.5248 
     44 N          26.8365    1.1439   -8.1010 N.am      7 UNK        -0.4718 
     45 CA         27.0218    0.6763   -9.4763 C.3       7 UNK         0.0273 
     46 CB         27.3231   -0.8331   -9.4730 C.3       7 UNK        -0.1935 
     47 C          28.1061    1.4855  -10.2085 C.2       7 UNK         0.5018 
     48 O          29.2515    1.0363  -10.3018 O.2       7 UNK        -0.5186 
     49 N          27.7183    2.6701  -10.7016 N.am      8 UNK        -0.4240 
     50 CA         28.5110    3.6208  -11.4884 C.3       8 UNK         0.0235 
     51 CB         28.8052    3.0453  -12.8934 C.3       8 UNK        -0.2000 
     52 C          29.7649    4.0846  -10.7257 C.2       8 UNK         0.4941 
     53 O          29.6412    4.8725   -9.7880 O.2       8 UNK        -0.5273 
     54 N          30.9378    3.5718  -11.1188 N.am      9 UNK        -0.4262 
     55 CA         32.2345    3.8174  -10.4803 C.3       9 UNK         0.0264 
     56 CB         33.3443    3.5249  -11.5062 C.3       9 UNK        -0.1955 
     57 C          32.4582    3.0095   -9.1828 C.2       9 UNK         0.5031 
     58 O          33.5394    3.1254   -8.6037 O.2       9 UNK        -0.5390 
     59 N          31.4539    2.2204   -8.7713 N.am      10 UNK        -0.4204 
     60 CA         31.4149    1.2117   -7.7097 C.3       10 UNK         0.0237 
     61 CB         32.1522    1.6277   -6.4219 C.3       10 UNK        -0.1985 
     62 C          31.8986   -0.1262   -8.2801 C.2       10 UNK         0.4970 
     63 O          33.0396   -0.2232   -8.7368 O.2       10 UNK        -0.4914 
     64 N          30.9975   -1.1155   -8.2832 N.am      11 UNK        -0.4285 
     65 CA         31.1332   -2.4093   -8.9743 C.3       11 UNK         0.1007 
     66 C          31.3275   -2.2945  -10.5198 C.2       11 UNK         0.5703 
     67 N          30.8451   -1.2400  -11.1689 N.am      11 UNK        -0.7361 
     68 O          31.8937   -3.1830  -11.1531 O.2       11 UNK        -0.4986 
     69 C69        32.1534   -3.3586   -8.2800 C.3       12 UNK        -0.0947 
     70 S70        31.5401   -3.9067   -6.6553 S.3       12 UNK        -0.2240 
     71 C71        32.5629   -2.9396   -5.5054 C.3       12 UNK         0.0194 
     72 H72        23.4319   -6.6884   -2.6937 H         1 UNK         0.0906 
     73 H73        23.0637   -6.1096   -1.0680 H         1 UNK         0.0906 
     74 H74        22.5757   -5.1606   -2.4742 H         1 UNK         0.0906 
     75 H75        24.8275   -5.1995   -0.0444 H         1 UNK         0.3140 
     76 H76        26.6655   -4.1080    0.4260 H         1 UNK         0.1085 
     77 H77        28.0138   -4.7538   -2.2263 H         1 UNK         0.0836 
     78 H78        27.5098   -6.0665   -1.2190 H         1 UNK         0.0836 
     79 H79        30.3581   -5.8800   -2.0149 H         1 UNK         0.0731 
     80 H80        31.4975   -5.3762   -0.7917 H         1 UNK         0.0731 
     81 H81        31.7253   -4.9163   -3.8026 H         1 UNK         0.1312 
     82 H82        31.9756   -0.6565   -4.1558 H         1 UNK         0.1406 
     83 H83        30.3225   -2.3954   -0.6224 H         1 UNK         0.1631 
     84 H84        31.2979    0.7838   -2.3842 H         1 UNK         0.0717 
     85 H85        31.4731    0.0646   -0.8042 H         1 UNK         0.0717 
     86 H86        27.5770    1.6601   -2.5212 H         1 UNK         0.0934 
     87 H87        29.1776    2.3202   -2.6617 H         1 UNK         0.0934 
     88 H88        29.7970    0.7160   -4.4036 H         1 UNK         0.0739 
     89 H89        27.7040   -0.9474   -3.5206 H         1 UNK         0.3093 
     90 H90        27.2384   -2.7805   -6.6064 H         1 UNK         0.0818 
     91 H91        28.6237   -3.4429   -3.9749 H         1 UNK         0.0819 
     92 H92        27.5157   -4.5813   -4.7482 H         1 UNK         0.0819 
     93 H93        28.9634   -4.0534   -5.5794 H         1 UNK         0.0819 
     94 H94        25.9569   -2.8856   -4.0361 H         1 UNK         0.3041 
     95 H95        23.3783   -0.5392   -4.8085 H         1 UNK         0.0784 
     96 H96        22.5095   -2.6174   -5.8292 H         1 UNK         0.0793 
     97 H97        23.2241   -3.5909   -4.5563 H         1 UNK         0.0793 
     98 H98        21.9196   -2.4637   -4.1827 H         1 UNK         0.0793 
     99 H99        23.9444   -2.2204   -2.5399 H         1 UNK         0.3024 
    100 H100       26.1770   -0.0019   -0.9162 H         1 UNK         0.1171 
    101 H101       24.4719    0.0114    0.8850 H         1 UNK         0.0786 
    102 H102       23.9688    1.0649   -0.4254 H         1 UNK         0.0786 
    103 H103       23.2270   -0.5193   -0.2474 H         1 UNK         0.0786 
    104 H104       24.8986   -2.3661    0.0110 H         1 UNK         0.2977 
    105 H105       26.2755    1.1012   -4.7986 H         1 UNK         0.3127 
    106 H106       26.3971    3.6419   -6.1292 H         1 UNK         0.0770 
    107 H107       24.1575    1.5539   -5.9882 H         1 UNK         0.0814 
    108 H108       23.9659    3.2341   -6.4686 H         1 UNK         0.0814 
    109 H109       24.4262    2.8459   -4.8189 H         1 UNK         0.0814 
    110 H110       27.2095    0.5554   -7.3669 H         1 UNK         0.2983 
    111 H111       26.0820    0.8139  -10.0161 H         1 UNK         0.0947 
    112 H112       27.4058   -1.2143  -10.4915 H         1 UNK         0.0806 
    113 H113       26.5310   -1.3950   -8.9779 H         1 UNK         0.0806 
    114 H114       28.2592   -1.0618   -8.9685 H         1 UNK         0.0806 
    115 H115       26.7927    2.9875  -10.4334 H         1 UNK         0.3000 
    116 H116       27.8906    4.5087  -11.6208 H         1 UNK         0.0850 
    117 H117       29.3863    3.7470  -13.4936 H         1 UNK         0.0810 
    118 H118       27.8786    2.8571  -13.4359 H         1 UNK         0.0810 
    119 H119       29.3545    2.1040  -12.8549 H         1 UNK         0.0810 
    120 H120       30.9296    2.9060  -11.8786 H         1 UNK         0.3040 
    121 H121       32.2913    4.8742  -10.2110 H         1 UNK         0.0766 
    122 H122       33.2203    4.1235  -12.4088 H         1 UNK         0.0812 
    123 H123       33.3564    2.4736  -11.7968 H         1 UNK         0.0812 
    124 H124       34.3284    3.7607  -11.0988 H         1 UNK         0.0812 
    125 H125       30.6468    2.1748   -9.3852 H         1 UNK         0.3205 
    126 H126       30.3579    1.1160   -7.4572 H         1 UNK         0.0754 
    127 H127       31.8953    0.9573   -5.6066 H         1 UNK         0.0769 
    128 H128       31.8717    2.6342   -6.1113 H         1 UNK         0.0769 
    129 H129       33.2358    1.5945   -6.5379 H         1 UNK         0.0769 
    130 H130       30.1140   -0.9704   -7.7978 H         1 UNK         0.2981 
    131 H131       30.1531   -2.8787   -8.8835 H         1 UNK         0.0541 
    132 H132       30.3434   -0.5006  -10.6864 H         1 UNK         0.3459 
    133 H133       30.9689   -1.1866  -12.1664 H         1 UNK         0.3459 
    134 H134       32.3065   -4.2653   -8.8672 H         1 UNK         0.0612 
    135 H135       33.1343   -2.8914   -8.1844 H         1 UNK         0.0612 
    136 H136       32.7485   -1.9553   -5.9375 H         1 UNK         0.0624 
    137 H137       33.5349   -3.4219   -5.3967 H         1 UNK         0.0624 
@<TRIPOS>BOND
     1    1    2 1    
     2    1   72 1    
     3    1   73 1    
     4    1   74 1    
     5    2    3 2    
     6    2    4 am   BACKBONE|DICT|INTERRES
     7    4    5 1    
     8    4   75 1    
     9    5    6 1    
    10    5   35 1    
    11    5   76 1    
    12    6    7 1    
    13    6   77 1    
    14    6   78 1    
    15    7    8 1    
    16    8    9 1    
    17    8   79 1    
    18    8   80 1    
    19    9   10 ar   
    20    9   14 ar   
    21   10   11 ar   
    22   10   81 1    
    23   11   12 ar   
    24   11   71 1    
    25   12   13 ar   
    26   12   82 1    
    27   13   14 ar   
    28   13   15 1    
    29   14   83 1    
    30   15   16 1    
    31   15   84 1    
    32   15   85 1    
    33   16   17 1    
    34   17   18 1    
    35   17   86 1    
    36   17   87 1    
    37   18   19 1    
    38   18   37 1    
    39   18   88 1    
    40   19   20 am   BACKBONE|DICT|INTERRES
    41   19   89 1    
    42   20   21 2    
    43   20   22 1    
    44   22   23 1    
    45   22   24 1    
    46   22   90 1    
    47   23   91 1    
    48   23   92 1    
    49   23   93 1    
    50   24   25 am   BACKBONE|DICT|INTERRES
    51   24   94 1    
    52   25   26 2    
    53   25   27 1    
    54   27   28 1    
    55   27   29 1    
    56   27   95 1    
    57   28   96 1    
    58   28   97 1    
    59   28   98 1    
    60   29   30 am   BACKBONE|DICT|INTERRES
    61   29   99 1    
    62   30   31 2    
    63   30   32 1    
    64   32   33 1    
    65   32   34 1    
    66   32  100 1    
    67   33  101 1    
    68   33  102 1    
    69   33  103 1    
    70   34   35 am   BACKBONE|DICT|INTERRES
    71   34  104 1    
    72   35   36 2    
    73   37   38 2    
    74   37   39 am   BACKBONE|DICT|INTERRES
    75   39   40 1    
    76   39  105 1    
    77   40   41 1    
    78   40   42 1    
    79   40  106 1    
    80   41  107 1    
    81   41  108 1    
    82   41  109 1    
    83   42   43 2    
    84   42   44 am   BACKBONE|DICT|INTERRES
    85   44   45 1    
    86   44  110 1    
    87   45   46 1    
    88   45   47 1    
    89   45  111 1    
    90   46  112 1    
    91   46  113 1    
    92   46  114 1    
    93   47   48 2    
    94   47   49 am   BACKBONE|DICT|INTERRES
    95   49   50 1    
    96   49  115 1    
    97   50   51 1    
    98   50   52 1    
    99   50  116 1    
   100   51  117 1    
   101   51  118 1    
   102   51  119 1    
   103   52   53 2    
   104   52   54 am   BACKBONE|DICT|INTERRES
   105   54   55 1    
   106   54  120 1    
   107   55   56 1    
   108   55   57 1    
   109   55  121 1    
   110   56  122 1    
   111   56  123 1    
   112   56  124 1    
   113   57   58 2    
   114   57   59 am   BACKBONE|DICT|INTERRES
   115   59   60 1    
   116   59  125 1    
   117   60   61 1    
   118   60   62 1    
   119   60  126 1    
   120   61  127 1    
   121   61  128 1    
   122   61  129 1    
   123   62   63 2    
   124   62   64 am   BACKBONE|DICT|INTERRES
   125   64   65 1    
   126   64  130 1    
   127   65   66 1    
   128   65   69 1    
   129   65  131 1    
   130   66   67 am   BACKBONE|DICT|INTERRES
   131   66   68 2    
   132   67  132 1    
   133   67  133 1    
   134   69   70 1    
   135   69  134 1    
   136   69  135 1    
   137   70   71 1    
   138   71  136 1    
   139   71  137 1    
@<TRIPOS>SUBSTRUCTURE
     1 UNK         1 GROUP             0       ****    0 ROOT    
