@<TRIPOS>MOLECULE
3R137
137   139    1
SMALL
USER_CHARGES


@<TRIPOS>ATOM
      1 CA         30.8631   -4.5981   -1.3561 C.3       0 UNK        -0.2020 
      2 C          30.0539   -3.6662   -0.4710 C.2       0 UNK         0.4855 
      3 O          29.5664   -4.0880    0.5781 O.2       0 UNK        -0.5197 
      4 N          29.9095   -2.3982   -0.8818 N.am      1 UNK        -0.4892 
      5 CA         29.1559   -1.3763   -0.1420 C.3       1 UNK         0.0835 
      6 C6         29.6589    0.0595   -0.4527 C.3       12 UNK        -0.0855 
      7 S7         29.0584    0.8124   -2.0061 S.3       12 UNK        -0.2931 
      8 C8         30.4659    0.5819   -3.1395 C.3       12 UNK         0.0378 
      9 C9         30.5513   -0.8305   -3.7065 C.ar      12 UNK        -0.0802 
     10 C10        31.7648   -1.5274   -3.6887 C.ar      12 UNK        -0.0944 
     11 C11        31.8470   -2.8201   -4.2169 C.ar      12 UNK        -0.0787 
     12 C12        30.7070   -3.4114   -4.7699 C.ar      12 UNK        -0.0862 
     13 C13        29.4890   -2.7273   -4.7922 C.ar      12 UNK        -0.0733 
     14 C14        29.4207   -1.4346   -4.2683 C.ar      12 UNK        -0.0832 
     15 C15        28.2457   -3.4016   -5.3533 C.3       12 UNK         0.0240 
     16 S16        28.1105   -3.1875   -7.1529 S.3       12 UNK        -0.2522 
     17 C17        27.3407   -1.5390   -7.2905 C.3       12 UNK        -0.0967 
     18 CA         25.8949   -1.6397   -7.8356 C.3       5 UNK         0.0660 
     19 N          24.9702   -2.2051   -6.8547 N.am      5 UNK        -0.4015 
     20 C          23.8066   -2.7926   -7.1672 C.2       4 UNK         0.4946 
     21 O          23.4462   -3.0188   -8.3238 O.2       4 UNK        -0.5353 
     22 CA         22.8767   -3.1934   -6.0067 C.3       4 UNK         0.0277 
     23 CB         23.0623   -4.6807   -5.6638 C.3       4 UNK        -0.1981 
     24 N          23.0621   -2.3961   -4.7915 N.am      4 UNK        -0.4209 
     25 C          22.8327   -1.0792   -4.6746 C.2       3 UNK         0.4942 
     26 O          22.3757   -0.3854   -5.5831 O.2       3 UNK        -0.5208 
     27 CA         23.1637   -0.4189   -3.3201 C.3       3 UNK         0.0250 
     28 CB         21.8770    0.0462   -2.6170 C.3       3 UNK        -0.1990 
     29 N          23.9235   -1.2766   -2.4015 N.am      3 UNK        -0.4232 
     30 C          25.2035   -1.6351   -2.5671 C.2       2 UNK         0.4993 
     31 O          25.8937   -1.2921   -3.5294 O.2       2 UNK        -0.5286 
     32 CA         25.7689   -2.6159   -1.5326 C.3       2 UNK         0.0209 
     33 CB         25.6507   -4.0596   -2.0511 C.3       2 UNK        -0.1931 
     34 N          27.1747   -2.3265   -1.2644 N.am      2 UNK        -0.4546 
     35 C          27.6229   -1.5424   -0.2742 C.2       1 UNK         0.5154 
     36 O          26.8827   -0.9800    0.5354 O.2       1 UNK        -0.5181 
     37 C          25.3562   -0.2690   -8.2793 C.2       5 UNK         0.5014 
     38 O          25.5414    0.7188   -7.5671 O.2       5 UNK        -0.5248 
     39 N          24.7071   -0.2278   -9.4521 N.am      6 UNK        -0.4434 
     40 CA         24.1305    0.9813  -10.0569 C.3       6 UNK         0.0363 
     41 CB         23.3341    0.5899  -11.3119 C.3       6 UNK        -0.1936 
     42 C          25.1683    2.0692  -10.3955 C.2       6 UNK         0.5081 
     43 O          24.8191    3.2486  -10.4393 O.2       6 UNK        -0.5248 
     44 N          26.4279    1.6584  -10.5952 N.am      7 UNK        -0.4718 
     45 CA         27.5883    2.5348  -10.7722 C.3       7 UNK         0.0273 
     46 CB         28.6936    1.7424  -11.4929 C.3       7 UNK        -0.1935 
     47 C          28.1223    3.1309   -9.4522 C.2       7 UNK         0.5018 
     48 O          29.0883    3.8933   -9.5030 O.2       7 UNK        -0.5186 
     49 N          27.5202    2.7673   -8.3070 N.am      8 UNK        -0.4240 
     50 CA         27.9387    3.0761   -6.9377 C.3       8 UNK         0.0235 
     51 CB         27.9076    4.5947   -6.6478 C.3       8 UNK        -0.2000 
     52 C          29.2792    2.3925   -6.6348 C.2       8 UNK         0.4941 
     53 O          29.2947    1.1761   -6.4433 O.2       8 UNK        -0.5273 
     54 N          30.3794    3.1560   -6.6323 N.am      9 UNK        -0.4262 
     55 CA         31.7534    2.6903   -6.4220 C.3       9 UNK         0.0264 
     56 CB         32.6414    3.9021   -6.0829 C.3       9 UNK        -0.1955 
     57 C          32.3000    1.8670   -7.6070 C.2       9 UNK         0.5031 
     58 O          33.3327    2.2193   -8.1800 O.2       9 UNK        -0.5390 
     59 N          31.6131    0.7657   -7.9384 N.am      10 UNK        -0.4204 
     60 CA         31.9656   -0.1863   -8.9976 C.3       10 UNK         0.0237 
     61 CB         30.8655   -1.2540   -9.1031 C.3       10 UNK        -0.1985 
     62 C          33.3400   -0.8490   -8.7969 C.2       10 UNK         0.4970 
     63 O          34.0185   -1.1454   -9.7810 O.2       10 UNK        -0.4914 
     64 N          33.7287   -1.0385   -7.5307 N.am      11 UNK        -0.4285 
     65 CA         35.0596   -1.4995   -7.1145 C.3       11 UNK         0.1007 
     66 C          36.1667   -0.4036   -7.1710 C.2       11 UNK         0.5703 
     67 N          35.8707    0.8500   -7.4970 N.am      11 UNK        -0.7361 
     68 O          37.3330   -0.7022   -6.9243 O.2       11 UNK        -0.4986 
     69 C69        35.0045   -2.1813   -5.7231 C.3       12 UNK        -0.0947 
     70 S70        33.9962   -3.7002   -5.7471 S.3       12 UNK        -0.2240 
     71 C71        33.1454   -3.6117   -4.1432 C.3       12 UNK         0.0194 
     72 H72        30.3283   -4.8062   -2.2819 H         1 UNK         0.0906 
     73 H73        31.8281   -4.1540   -1.5950 H         1 UNK         0.0906 
     74 H74        31.0476   -5.5464   -0.8518 H         1 UNK         0.0906 
     75 H75        30.3103   -2.1003   -1.7627 H         1 UNK         0.3140 
     76 H76        29.3660   -1.5413    0.9177 H         1 UNK         0.1085 
     77 H77        29.3415    0.7227    0.3541 H         1 UNK         0.0836 
     78 H78        30.7494    0.0892   -0.4276 H         1 UNK         0.0836 
     79 H79        30.3370    1.2765   -3.9670 H         1 UNK         0.0731 
     80 H80        31.3919    0.8684   -2.6387 H         1 UNK         0.0731 
     81 H81        32.6438   -1.0690   -3.2561 H         1 UNK         0.1312 
     82 H82        30.7661   -4.4138   -5.1720 H         1 UNK         0.1406 
     83 H83        28.4824   -0.8958   -4.2866 H         1 UNK         0.1631 
     84 H84        27.3461   -3.0235   -4.8684 H         1 UNK         0.0717 
     85 H85        28.2794   -4.4693   -5.1318 H         1 UNK         0.0717 
     86 H86        27.3613   -1.0185   -6.3318 H         1 UNK         0.0934 
     87 H87        27.9651   -0.9450   -7.9596 H         1 UNK         0.0934 
     88 H88        25.9198   -2.2908   -8.7127 H         1 UNK         0.0739 
     89 H89        25.1761   -2.0145   -5.8837 H         1 UNK         0.3093 
     90 H90        21.8500   -3.0434   -6.3474 H         1 UNK         0.0818 
     91 H91        22.3502   -5.0067   -4.9054 H         1 UNK         0.0819 
     92 H92        22.9032   -5.3063   -6.5434 H         1 UNK         0.0819 
     93 H93        24.0676   -4.8888   -5.2946 H         1 UNK         0.0819 
     94 H94        23.4170   -2.8823   -3.9823 H         1 UNK         0.3041 
     95 H95        23.7721    0.4620   -3.5374 H         1 UNK         0.0784 
     96 H96        21.3048    0.7223   -3.2542 H         1 UNK         0.0793 
     97 H97        21.2268   -0.7932   -2.3671 H         1 UNK         0.0793 
     98 H98        22.0998    0.5862   -1.6964 H         1 UNK         0.0793 
     99 H99        23.4211   -1.6188   -1.5942 H         1 UNK         0.3024 
    100 H100       25.1962   -2.5320   -0.6057 H         1 UNK         0.1171 
    101 H101       24.6089   -4.3317   -2.2252 H         1 UNK         0.0786 
    102 H102       26.0516   -4.7715   -1.3292 H         1 UNK         0.0786 
    103 H103       26.1869   -4.2008   -2.9903 H         1 UNK         0.0786 
    104 H104       27.8497   -2.6966   -1.9166 H         1 UNK         0.2977 
    105 H105       24.5571   -1.0959   -9.9485 H         1 UNK         0.3127 
    106 H106       23.4371    1.4120   -9.3314 H         1 UNK         0.0770 
    107 H107       23.9715    0.1302  -12.0683 H         1 UNK         0.0814 
    108 H108       22.8684    1.4652  -11.7670 H         1 UNK         0.0814 
    109 H109       22.5345   -0.1115  -11.0728 H         1 UNK         0.0814 
    110 H110       26.6123    0.6666  -10.5553 H         1 UNK         0.2983 
    111 H111       27.2988    3.3746  -11.4079 H         1 UNK         0.0947 
    112 H112       29.5596    2.3735  -11.6979 H         1 UNK         0.0806 
    113 H113       28.3458    1.3559  -12.4511 H         1 UNK         0.0806 
    114 H114       29.0416    0.8995  -10.8954 H         1 UNK         0.0806 
    115 H115       26.7517    2.1060   -8.3607 H         1 UNK         0.3000 
    116 H116       27.2052    2.6050   -6.2811 H         1 UNK         0.0850 
    117 H117       28.1892    4.7988   -5.6139 H         1 UNK         0.0810 
    118 H118       26.9034    4.9944   -6.7893 H         1 UNK         0.0810 
    119 H119       28.5782    5.1661   -7.2893 H         1 UNK         0.0810 
    120 H120       30.2704    4.1297   -6.8771 H         1 UNK         0.3040 
    121 H121       31.7651    2.0273   -5.5566 H         1 UNK         0.0766 
    122 H122       32.2779    4.4265   -5.1990 H         1 UNK         0.0812 
    123 H123       32.6805    4.6164   -6.9063 H         1 UNK         0.0812 
    124 H124       33.6655    3.5905   -5.8725 H         1 UNK         0.0812 
    125 H125       30.7528    0.5929   -7.4196 H         1 UNK         0.3205 
    126 H126       32.0023    0.3674   -9.9379 H         1 UNK         0.0754 
    127 H127       29.9039   -0.8083   -9.3538 H         1 UNK         0.0769 
    128 H128       30.7474   -1.8040   -8.1681 H         1 UNK         0.0769 
    129 H129       31.0968   -1.9808   -9.8830 H         1 UNK         0.0769 
    130 H130       33.0956   -0.7826   -6.7887 H         1 UNK         0.2981 
    131 H131       35.3814   -2.2581   -7.8307 H         1 UNK         0.0541 
    132 H132       34.9267    1.1338   -7.7364 H         1 UNK         0.3459 
    133 H133       36.6134    1.5296   -7.5295 H         1 UNK         0.3459 
    134 H134       34.6165   -1.4862   -4.9767 H         1 UNK         0.0612 
    135 H135       36.0027   -2.4673   -5.3869 H         1 UNK         0.0612 
    136 H136       32.9227   -4.6298   -3.8208 H         1 UNK         0.0624 
    137 H137       33.8162   -3.1979   -3.3886 H         1 UNK         0.0624 
@<TRIPOS>BOND
     1    1    2 1    
     2    1   72 1    
     3    1   73 1    
     4    1   74 1    
     5    2    3 2    
     6    2    4 am   BACKBONE|DICT|INTERRES
     7    4    5 1    
     8    4   75 1    
     9    5    6 1    
    10    5   35 1    
    11    5   76 1    
    12    6    7 1    
    13    6   77 1    
    14    6   78 1    
    15    7    8 1    
    16    8    9 1    
    17    8   79 1    
    18    8   80 1    
    19    9   10 ar   
    20    9   14 ar   
    21   10   11 ar   
    22   10   81 1    
    23   11   12 ar   
    24   11   71 1    
    25   12   13 ar   
    26   12   82 1    
    27   13   14 ar   
    28   13   15 1    
    29   14   83 1    
    30   15   16 1    
    31   15   84 1    
    32   15   85 1    
    33   16   17 1    
    34   17   18 1    
    35   17   86 1    
    36   17   87 1    
    37   18   19 1    
    38   18   37 1    
    39   18   88 1    
    40   19   20 am   BACKBONE|DICT|INTERRES
    41   19   89 1    
    42   20   21 2    
    43   20   22 1    
    44   22   23 1    
    45   22   24 1    
    46   22   90 1    
    47   23   91 1    
    48   23   92 1    
    49   23   93 1    
    50   24   25 am   BACKBONE|DICT|INTERRES
    51   24   94 1    
    52   25   26 2    
    53   25   27 1    
    54   27   28 1    
    55   27   29 1    
    56   27   95 1    
    57   28   96 1    
    58   28   97 1    
    59   28   98 1    
    60   29   30 am   BACKBONE|DICT|INTERRES
    61   29   99 1    
    62   30   31 2    
    63   30   32 1    
    64   32   33 1    
    65   32   34 1    
    66   32  100 1    
    67   33  101 1    
    68   33  102 1    
    69   33  103 1    
    70   34   35 am   BACKBONE|DICT|INTERRES
    71   34  104 1    
    72   35   36 2    
    73   37   38 2    
    74   37   39 am   BACKBONE|DICT|INTERRES
    75   39   40 1    
    76   39  105 1    
    77   40   41 1    
    78   40   42 1    
    79   40  106 1    
    80   41  107 1    
    81   41  108 1    
    82   41  109 1    
    83   42   43 2    
    84   42   44 am   BACKBONE|DICT|INTERRES
    85   44   45 1    
    86   44  110 1    
    87   45   46 1    
    88   45   47 1    
    89   45  111 1    
    90   46  112 1    
    91   46  113 1    
    92   46  114 1    
    93   47   48 2    
    94   47   49 am   BACKBONE|DICT|INTERRES
    95   49   50 1    
    96   49  115 1    
    97   50   51 1    
    98   50   52 1    
    99   50  116 1    
   100   51  117 1    
   101   51  118 1    
   102   51  119 1    
   103   52   53 2    
   104   52   54 am   BACKBONE|DICT|INTERRES
   105   54   55 1    
   106   54  120 1    
   107   55   56 1    
   108   55   57 1    
   109   55  121 1    
   110   56  122 1    
   111   56  123 1    
   112   56  124 1    
   113   57   58 2    
   114   57   59 am   BACKBONE|DICT|INTERRES
   115   59   60 1    
   116   59  125 1    
   117   60   61 1    
   118   60   62 1    
   119   60  126 1    
   120   61  127 1    
   121   61  128 1    
   122   61  129 1    
   123   62   63 2    
   124   62   64 am   BACKBONE|DICT|INTERRES
   125   64   65 1    
   126   64  130 1    
   127   65   66 1    
   128   65   69 1    
   129   65  131 1    
   130   66   67 am   BACKBONE|DICT|INTERRES
   131   66   68 2    
   132   67  132 1    
   133   67  133 1    
   134   69   70 1    
   135   69  134 1    
   136   69  135 1    
   137   70   71 1    
   138   71  136 1    
   139   71  137 1    
@<TRIPOS>SUBSTRUCTURE
     1 UNK         1 GROUP             0       ****    0 ROOT    
