@<TRIPOS>MOLECULE
3R137
137   139    1
SMALL
USER_CHARGES


@<TRIPOS>ATOM
      1 CA         27.1190   -6.3315    1.5977 C.3       0 UNK        -0.2020 
      2 C          26.4623   -4.9605    1.5424 C.2       0 UNK         0.4855 
      3 O          25.2646   -4.8439    1.8033 O.2       0 UNK        -0.5197 
      4 N          27.2370   -3.9209    1.2070 N.am      1 UNK        -0.4892 
      5 CA         26.7780   -2.5316    1.0729 C.3       1 UNK         0.0835 
      6 C6         27.9581   -1.5240    1.0972 C.3       12 UNK        -0.0855 
      7 S7         29.3342   -1.9552   -0.0258 S.3       12 UNK        -0.2931 
      8 C8         28.9952   -0.8447   -1.4238 C.3       12 UNK         0.0378 
      9 C9         29.8063   -1.2309   -2.6503 C.ar      12 UNK        -0.0802 
     10 C10        30.7952   -0.3783   -3.1509 C.ar      12 UNK        -0.0944 
     11 C11        31.5101   -0.7254   -4.3015 C.ar      12 UNK        -0.0787 
     12 C12        31.2435   -1.9415   -4.9382 C.ar      12 UNK        -0.0862 
     13 C13        30.2625   -2.8037   -4.4434 C.ar      12 UNK        -0.0733 
     14 C14        29.5414   -2.4373   -3.3042 C.ar      12 UNK        -0.0832 
     15 C15        29.9926   -4.1364   -5.1283 C.3       12 UNK         0.0240 
     16 S16        29.2371   -3.9411   -6.7736 S.3       12 UNK        -0.2522 
     17 C17        27.6564   -3.1322   -6.3722 C.3       12 UNK        -0.0967 
     18 CA         27.3545   -1.9152   -7.2839 C.3       5 UNK         0.0660 
     19 N          25.9538   -1.5146   -7.2357 N.am      5 UNK        -0.4015 
     20 C          24.8970   -2.1682   -7.7190 C.2       4 UNK         0.4946 
     21 O          24.9717   -3.2309   -8.3376 O.2       4 UNK        -0.5353 
     22 CA         23.5232   -1.5207   -7.4327 C.3       4 UNK         0.0277 
     23 CB         22.3463   -2.4320   -7.8281 C.3       4 UNK        -0.1981 
     24 N          23.3693   -1.1275   -6.0248 N.am      4 UNK        -0.4209 
     25 C          23.9402   -0.0626   -5.4427 C.2       3 UNK         0.4942 
     26 O          24.6734    0.7251   -6.0395 O.2       3 UNK        -0.5208 
     27 CA         23.7498    0.0899   -3.9277 C.3       3 UNK         0.0250 
     28 CB         22.3451    0.6203   -3.6003 C.3       3 UNK        -0.1990 
     29 N          23.9947   -1.1629   -3.2093 N.am      3 UNK        -0.4232 
     30 C          25.1732   -1.8020   -3.1676 C.2       2 UNK         0.4993 
     31 O          26.1998   -1.3929   -3.7172 O.2       2 UNK        -0.5286 
     32 CA         25.1940   -3.1409   -2.4081 C.3       2 UNK         0.0209 
     33 CB         25.6638   -4.2840   -3.3239 C.3       2 UNK        -0.1931 
     34 N          26.0289   -3.1125   -1.2043 N.am      2 UNK        -0.4546 
     35 C          25.8454   -2.3146   -0.1407 C.2       1 UNK         0.5154 
     36 O          24.9609   -1.4600   -0.0710 O.2       1 UNK        -0.5181 
     37 C          28.1814   -0.6626   -6.9454 C.2       5 UNK         0.5014 
     38 O          29.0318   -0.2585   -7.7434 O.2       5 UNK        -0.5248 
     39 N          27.8354   -0.0065   -5.8241 N.am      6 UNK        -0.4434 
     40 CA         28.3404    1.3135   -5.4371 C.3       6 UNK         0.0363 
     41 CB         27.7952    1.6902   -4.0506 C.3       6 UNK        -0.1936 
     42 C          27.9861    2.4084   -6.4570 C.2       6 UNK         0.5081 
     43 O          28.8803    3.1031   -6.9380 O.2       6 UNK        -0.5248 
     44 N          26.6945    2.5186   -6.8025 N.am      7 UNK        -0.4718 
     45 CA         26.1669    3.4910   -7.7679 C.3       7 UNK         0.0273 
     46 CB         24.6362    3.5536   -7.6454 C.3       7 UNK        -0.1935 
     47 C          26.5772    3.1872   -9.2183 C.2       7 UNK         0.5018 
     48 O          26.6168    4.1022  -10.0410 O.2       7 UNK        -0.5186 
     49 N          26.9026    1.9174   -9.4958 N.am      8 UNK        -0.4240 
     50 CA         27.4867    1.4588  -10.7571 C.3       8 UNK         0.0235 
     51 CB         27.2486   -0.0544  -10.8975 C.3       8 UNK        -0.2000 
     52 C          28.9893    1.7844  -10.8740 C.2       8 UNK         0.4941 
     53 O          29.5423    1.6287  -11.9632 O.2       8 UNK        -0.5273 
     54 N          29.6191    2.2132   -9.7663 N.am      9 UNK        -0.4262 
     55 CA         31.0394    2.5394   -9.6109 C.3       9 UNK         0.0264 
     56 CB         31.4141    3.7862  -10.4401 C.3       9 UNK        -0.1955 
     57 C          31.9594    1.3350   -9.8800 C.2       9 UNK         0.5031 
     58 O          33.0285    1.4981  -10.4726 O.2       9 UNK        -0.5390 
     59 N          31.5449    0.1441   -9.4191 N.am      10 UNK        -0.4204 
     60 CA         32.2553   -1.1255   -9.6255 C.3       10 UNK         0.0237 
     61 CB         31.3793   -2.2753   -9.1123 C.3       10 UNK        -0.1985 
     62 C          33.6609   -1.1883   -8.9945 C.2       10 UNK         0.4970 
     63 O          34.4789   -2.0001   -9.4289 O.2       10 UNK        -0.4914 
     64 N          33.9202   -0.3237   -8.0066 N.am      11 UNK        -0.4285 
     65 CA         35.2393   -0.0951   -7.3996 C.3       11 UNK         0.1007 
     66 C          36.2213    0.7114   -8.3011 C.2       11 UNK         0.5703 
     67 N          35.7911    1.3071   -9.4087 N.am      11 UNK        -0.7361 
     68 O          37.4075    0.7903   -7.9911 O.2       11 UNK        -0.4986 
     69 C69        35.1121    0.5549   -5.9952 C.3       12 UNK        -0.0947 
     70 S70        34.2173   -0.5079   -4.8154 S.3       12 UNK        -0.2240 
     71 C71        32.5502    0.2184   -4.8820 C.3       12 UNK         0.0194 
     72 H72        26.6467   -7.0023    0.8801 H         1 UNK         0.0906 
     73 H73        27.0053   -6.7619    2.5930 H         1 UNK         0.0906 
     74 H74        28.1841   -6.2843    1.3688 H         1 UNK         0.0906 
     75 H75        28.2181   -4.0656    1.0075 H         1 UNK         0.3140 
     76 H76        26.1634   -2.3172    1.9506 H         1 UNK         0.1085 
     77 H77        28.3709   -1.4919    2.1068 H         1 UNK         0.0836 
     78 H78        27.6133   -0.5069    0.8990 H         1 UNK         0.0836 
     79 H79        27.9359   -0.8833   -1.6779 H         1 UNK         0.0731 
     80 H80        29.2050    0.1828   -1.1225 H         1 UNK         0.0731 
     81 H81        30.9961    0.5617   -2.6557 H         1 UNK         0.1312 
     82 H82        31.8034   -2.2174   -5.8205 H         1 UNK         0.1406 
     83 H83        28.7730   -3.0905   -2.9157 H         1 UNK         0.1631 
     84 H84        29.3477   -4.7671   -4.5144 H         1 UNK         0.0717 
     85 H85        30.9336   -4.6772   -5.2370 H         1 UNK         0.0717 
     86 H86        26.8835   -3.8928   -6.4880 H         1 UNK         0.0934 
     87 H87        27.6262   -2.8458   -5.3226 H         1 UNK         0.0934 
     88 H88        27.5754   -2.1906   -8.3170 H         1 UNK         0.0739 
     89 H89        25.7614   -0.6361   -6.7618 H         1 UNK         0.3093 
     90 H90        23.4655   -0.6201   -8.0483 H         1 UNK         0.0818 
     91 H91        22.3910   -2.6928   -8.8864 H         1 UNK         0.0819 
     92 H92        22.3500   -3.3643   -7.2620 H         1 UNK         0.0819 
     93 H93        21.3884   -1.9397   -7.6600 H         1 UNK         0.0819 
     94 H94        22.8276   -1.7506   -5.4437 H         1 UNK         0.3041 
     95 H95        24.4788    0.8219   -3.5745 H         1 UNK         0.0784 
     96 H96        22.1526    1.5594   -4.1213 H         1 UNK         0.0793 
     97 H97        21.5637   -0.0817   -3.8939 H         1 UNK         0.0793 
     98 H98        22.2356    0.8166   -2.5334 H         1 UNK         0.0793 
     99 H99        23.2120   -1.5527   -2.7039 H         1 UNK         0.3024 
    100 H100       24.1757   -3.3720   -2.0880 H         1 UNK         0.1171 
    101 H101       25.0925   -4.3038   -4.2532 H         1 UNK         0.0786 
    102 H102       26.7155   -4.1848   -3.5905 H         1 UNK         0.0786 
    103 H103       25.5327   -5.2542   -2.8442 H         1 UNK         0.0786 
    104 H104       26.7846   -3.7793   -1.1587 H         1 UNK         0.2977 
    105 H105       27.1887   -0.4457   -5.1725 H         1 UNK         0.3127 
    106 H106       29.4285    1.2474   -5.3762 H         1 UNK         0.0770 
    107 H107       26.7081    1.7732   -4.0493 H         1 UNK         0.0814 
    108 H108       28.1983    2.6476   -3.7186 H         1 UNK         0.0814 
    109 H109       28.0662    0.9484   -3.3042 H         1 UNK         0.0814 
    110 H110       26.0112    1.8907   -6.3812 H         1 UNK         0.2983 
    111 H111       26.5721    4.4727   -7.5130 H         1 UNK         0.0947 
    112 H112       24.1693    2.6078   -7.9226 H         1 UNK         0.0806 
    113 H113       24.2240    4.3236   -8.2988 H         1 UNK         0.0806 
    114 H114       24.3281    3.7929   -6.6275 H         1 UNK         0.0806 
    115 H115       26.8468    1.2441   -8.7467 H         1 UNK         0.3000 
    116 H116       26.9768    1.9637  -11.5805 H         1 UNK         0.0850 
    117 H117       27.5800   -0.4095  -11.8742 H         1 UNK         0.0810 
    118 H118       26.1916   -0.3049  -10.8047 H         1 UNK         0.0810 
    119 H119       27.7983   -0.6215  -10.1470 H         1 UNK         0.0810 
    120 H120       29.0756    2.3033   -8.9153 H         1 UNK         0.3040 
    121 H121       31.1769    2.7931   -8.5589 H         1 UNK         0.0766 
    122 H122       31.3590    3.5922  -11.5116 H         1 UNK         0.0812 
    123 H123       32.4325    4.1093  -10.2213 H         1 UNK         0.0812 
    124 H124       30.7540    4.6240  -10.2157 H         1 UNK         0.0812 
    125 H125       30.6585    0.0927   -8.9220 H         1 UNK         0.3205 
    126 H126       32.3858   -1.2530  -10.7020 H         1 UNK         0.0754 
    127 H127       31.8657   -3.2412   -9.2550 H         1 UNK         0.0769 
    128 H128       30.4229   -2.3121   -9.6345 H         1 UNK         0.0769 
    129 H129       31.1722   -2.1648   -8.0491 H         1 UNK         0.0769 
    130 H130       33.1892    0.3113   -7.7302 H         1 UNK         0.2981 
    131 H131       35.7070   -1.0720   -7.2638 H         1 UNK         0.0541 
    132 H132       36.4500    1.8173   -9.9741 H         1 UNK         0.3459 
    133 H133       34.8184    1.2605   -9.6955 H         1 UNK         0.3459 
    134 H134       34.6256    1.5298   -6.0593 H         1 UNK         0.0612 
    135 H135       36.0999    0.7377   -5.5682 H         1 UNK         0.0612 
    136 H136       32.5565    1.1715   -4.3510 H         1 UNK         0.0624 
    137 H137       32.2762    0.4403   -5.9133 H         1 UNK         0.0624 
@<TRIPOS>BOND
     1    1    2 1    
     2    1   72 1    
     3    1   73 1    
     4    1   74 1    
     5    2    3 2    
     6    2    4 am   BACKBONE|DICT|INTERRES
     7    4    5 1    
     8    4   75 1    
     9    5    6 1    
    10    5   35 1    
    11    5   76 1    
    12    6    7 1    
    13    6   77 1    
    14    6   78 1    
    15    7    8 1    
    16    8    9 1    
    17    8   79 1    
    18    8   80 1    
    19    9   10 ar   
    20    9   14 ar   
    21   10   11 ar   
    22   10   81 1    
    23   11   12 ar   
    24   11   71 1    
    25   12   13 ar   
    26   12   82 1    
    27   13   14 ar   
    28   13   15 1    
    29   14   83 1    
    30   15   16 1    
    31   15   84 1    
    32   15   85 1    
    33   16   17 1    
    34   17   18 1    
    35   17   86 1    
    36   17   87 1    
    37   18   19 1    
    38   18   37 1    
    39   18   88 1    
    40   19   20 am   BACKBONE|DICT|INTERRES
    41   19   89 1    
    42   20   21 2    
    43   20   22 1    
    44   22   23 1    
    45   22   24 1    
    46   22   90 1    
    47   23   91 1    
    48   23   92 1    
    49   23   93 1    
    50   24   25 am   BACKBONE|DICT|INTERRES
    51   24   94 1    
    52   25   26 2    
    53   25   27 1    
    54   27   28 1    
    55   27   29 1    
    56   27   95 1    
    57   28   96 1    
    58   28   97 1    
    59   28   98 1    
    60   29   30 am   BACKBONE|DICT|INTERRES
    61   29   99 1    
    62   30   31 2    
    63   30   32 1    
    64   32   33 1    
    65   32   34 1    
    66   32  100 1    
    67   33  101 1    
    68   33  102 1    
    69   33  103 1    
    70   34   35 am   BACKBONE|DICT|INTERRES
    71   34  104 1    
    72   35   36 2    
    73   37   38 2    
    74   37   39 am   BACKBONE|DICT|INTERRES
    75   39   40 1    
    76   39  105 1    
    77   40   41 1    
    78   40   42 1    
    79   40  106 1    
    80   41  107 1    
    81   41  108 1    
    82   41  109 1    
    83   42   43 2    
    84   42   44 am   BACKBONE|DICT|INTERRES
    85   44   45 1    
    86   44  110 1    
    87   45   46 1    
    88   45   47 1    
    89   45  111 1    
    90   46  112 1    
    91   46  113 1    
    92   46  114 1    
    93   47   48 2    
    94   47   49 am   BACKBONE|DICT|INTERRES
    95   49   50 1    
    96   49  115 1    
    97   50   51 1    
    98   50   52 1    
    99   50  116 1    
   100   51  117 1    
   101   51  118 1    
   102   51  119 1    
   103   52   53 2    
   104   52   54 am   BACKBONE|DICT|INTERRES
   105   54   55 1    
   106   54  120 1    
   107   55   56 1    
   108   55   57 1    
   109   55  121 1    
   110   56  122 1    
   111   56  123 1    
   112   56  124 1    
   113   57   58 2    
   114   57   59 am   BACKBONE|DICT|INTERRES
   115   59   60 1    
   116   59  125 1    
   117   60   61 1    
   118   60   62 1    
   119   60  126 1    
   120   61  127 1    
   121   61  128 1    
   122   61  129 1    
   123   62   63 2    
   124   62   64 am   BACKBONE|DICT|INTERRES
   125   64   65 1    
   126   64  130 1    
   127   65   66 1    
   128   65   69 1    
   129   65  131 1    
   130   66   67 am   BACKBONE|DICT|INTERRES
   131   66   68 2    
   132   67  132 1    
   133   67  133 1    
   134   69   70 1    
   135   69  134 1    
   136   69  135 1    
   137   70   71 1    
   138   71  136 1    
   139   71  137 1    
@<TRIPOS>SUBSTRUCTURE
     1 UNK         1 GROUP             0       ****    0 ROOT    
