@<TRIPOS>MOLECULE
3R137
137   139    1
SMALL
USER_CHARGES


@<TRIPOS>ATOM
      1 CA         24.9914   -5.0003    0.0390 C.3       0 UNK        -0.2020 
      2 C          26.0881   -4.1448   -0.5770 C.2       0 UNK         0.4855 
      3 O          26.0035   -3.8053   -1.7561 O.2       0 UNK        -0.5197 
      4 N          27.1037   -3.7829    0.2194 N.am      1 UNK        -0.4892 
      5 CA         28.3017   -2.9932   -0.1236 C.3       1 UNK         0.0835 
      6 C6         29.1495   -3.5791   -1.2809 C.3       12 UNK        -0.0855 
      7 S7         29.6524   -5.3131   -0.9947 S.3       12 UNK        -0.2931 
      8 C8         31.2284   -5.4048   -1.9116 C.3       12 UNK         0.0378 
      9 C9         31.1322   -4.8013   -3.3081 C.ar      12 UNK        -0.0802 
     10 C10        32.0063   -3.7782   -3.6896 C.ar      12 UNK        -0.0944 
     11 C11        31.9013   -3.1877   -4.9518 C.ar      12 UNK        -0.0787 
     12 C12        30.8959   -3.6139   -5.8244 C.ar      12 UNK        -0.0862 
     13 C13        30.0190   -4.6397   -5.4604 C.ar      12 UNK        -0.0733 
     14 C14        30.1579   -5.2453   -4.2085 C.ar      12 UNK        -0.0832 
     15 C15        28.9244   -5.0854   -6.4238 C.3       12 UNK         0.0240 
     16 S16        27.2463   -4.9967   -5.7081 S.3       12 UNK        -0.2522 
     17 C17        27.1298   -3.2462   -5.2143 C.3       12 UNK        -0.0967 
     18 CA         26.8172   -2.3073   -6.4144 C.3       5 UNK         0.0660 
     19 N          25.4667   -1.7367   -6.3422 N.am      5 UNK        -0.4015 
     20 C          24.8771   -1.0657   -7.3433 C.2       4 UNK         0.4946 
     21 O          25.3965   -0.8795   -8.4417 O.2       4 UNK        -0.5353 
     22 CA         23.4887   -0.4633   -7.0781 C.3       4 UNK         0.0277 
     23 CB         22.3887   -1.4928   -7.3824 C.3       4 UNK        -0.1981 
     24 N          23.3134    0.0567   -5.7214 N.am      4 UNK        -0.4209 
     25 C          24.0509    1.0236   -5.1570 C.2       3 UNK         0.4942 
     26 O          24.9968    1.5786   -5.7177 O.2       3 UNK        -0.5208 
     27 CA         23.6811    1.4430   -3.7207 C.3       3 UNK         0.0250 
     28 CB         22.4059    0.7601   -3.1717 C.3       3 UNK        -0.1990 
     29 N          24.7817    1.2633   -2.7660 N.am      3 UNK        -0.4232 
     30 C          25.4975    0.1493   -2.5474 C.2       2 UNK         0.4993 
     31 O          25.4379   -0.8626   -3.2531 O.2       2 UNK        -0.5286 
     32 CA         26.4248    0.1738   -1.3210 C.3       2 UNK         0.0209 
     33 CB         25.7091    0.7066   -0.0592 C.3       2 UNK        -0.1931 
     34 N          26.9231   -1.1752   -1.0650 N.am      2 UNK        -0.4546 
     35 C          28.0109   -1.4943   -0.3575 C.2       1 UNK         0.5154 
     36 O          28.7664   -0.6542    0.1340 O.2       1 UNK        -0.5181 
     37 C          27.8762   -1.1969   -6.5407 C.2       5 UNK         0.5014 
     38 O          28.7344   -1.2624   -7.4247 O.2       5 UNK        -0.5248 
     39 N          27.7585   -0.1837   -5.6699 N.am      6 UNK        -0.4434 
     40 CA         28.6174    0.9993   -5.6444 C.3       6 UNK         0.0363 
     41 CB         28.3071    1.8427   -4.3990 C.3       6 UNK        -0.1936 
     42 C          28.5173    1.8401   -6.9239 C.2       6 UNK         0.5081 
     43 O          29.5402    2.3395   -7.3925 O.2       6 UNK        -0.5248 
     44 N          27.3011    1.9604   -7.4711 N.am      7 UNK        -0.4718 
     45 CA         27.0250    2.6285   -8.7409 C.3       7 UNK         0.0273 
     46 CB         25.5117    2.8550   -8.8864 C.3       7 UNK        -0.1935 
     47 C          27.5838    1.8589   -9.9488 C.2       7 UNK         0.5018 
     48 O          28.2573    2.4660  -10.7815 O.2       7 UNK        -0.5186 
     49 N          27.3008    0.5489  -10.0278 N.am      8 UNK        -0.4240 
     50 CA         27.6827   -0.3165  -11.1489 C.3       8 UNK         0.0235 
     51 CB         26.9934   -1.6847  -11.0211 C.3       8 UNK        -0.2000 
     52 C          29.1993   -0.4961  -11.2982 C.2       8 UNK         0.4941 
     53 O          29.7085   -0.3983  -12.4156 O.2       8 UNK        -0.5273 
     54 N          29.8940   -0.7481  -10.1805 N.am      9 UNK        -0.4262 
     55 CA         31.3506   -0.9140  -10.1603 C.3       9 UNK         0.0264 
     56 CB         31.7335   -1.7970   -8.9675 C.3       9 UNK        -0.1955 
     57 C          32.1146    0.4193  -10.0989 C.2       9 UNK         0.5031 
     58 O          33.3316    0.4136  -10.2883 O.2       9 UNK        -0.5390 
     59 N          31.4065    1.5188   -9.7993 N.am      10 UNK        -0.4204 
     60 CA         31.9166    2.8733   -9.5539 C.3       10 UNK         0.0237 
     61 CB         32.5887    3.4576  -10.8150 C.3       10 UNK        -0.1985 
     62 C          32.8050    2.9808   -8.2955 C.2       10 UNK         0.4970 
     63 O          33.5710    3.9394   -8.1789 O.2       10 UNK        -0.4914 
     64 N          32.6804    2.0182   -7.3701 N.am      11 UNK        -0.4285 
     65 CA         33.3559    2.0183   -6.0648 C.3       11 UNK         0.1007 
     66 C          32.6650    2.9098   -4.9919 C.2       11 UNK         0.5703 
     67 N          31.4686    3.4348   -5.2337 N.am      11 UNK        -0.7361 
     68 O          33.2382    3.1499   -3.9318 O.2       11 UNK        -0.4986 
     69 C69        33.6567    0.5800   -5.5607 C.3       12 UNK        -0.0947 
     70 S70        32.1842   -0.4408   -5.2098 S.3       12 UNK        -0.2240 
     71 C71        32.8874   -2.1084   -5.3775 C.3       12 UNK         0.0194 
     72 H72        25.1812   -5.2162    1.0900 H         1 UNK         0.0906 
     73 H73        24.0324   -4.4894   -0.0350 H         1 UNK         0.0906 
     74 H74        24.9141   -5.9481   -0.4927 H         1 UNK         0.0906 
     75 H75        27.0778   -4.0852    1.1837 H         1 UNK         0.3140 
     76 H76        28.9253   -3.0306    0.7716 H         1 UNK         0.1085 
     77 H77        28.6059   -3.5304   -2.2261 H         1 UNK         0.0836 
     78 H78        30.0496   -2.9762   -1.4190 H         1 UNK         0.0836 
     79 H79        31.9991   -4.9019   -1.3252 H         1 UNK         0.0731 
     80 H80        31.5340   -6.4487   -1.9924 H         1 UNK         0.0731 
     81 H81        32.7698   -3.4378   -3.0033 H         1 UNK         0.1312 
     82 H82        30.7912   -3.1439   -6.7891 H         1 UNK         0.1406 
     83 H83        29.4781   -6.0348   -3.9169 H         1 UNK         0.1631 
     84 H84        29.1215   -6.1137   -6.7292 H         1 UNK         0.0717 
     85 H85        28.9444   -4.4858   -7.3355 H         1 UNK         0.0717 
     86 H86        28.0463   -2.9734   -4.6869 H         1 UNK         0.0934 
     87 H87        26.3535   -3.1762   -4.4501 H         1 UNK         0.0934 
     88 H88        26.8661   -2.8786   -7.3441 H         1 UNK         0.0739 
     89 H89        24.9977   -1.7897   -5.4474 H         1 UNK         0.3093 
     90 H90        23.3643    0.3772   -7.7638 H         1 UNK         0.0818 
     91 H91        21.3959   -1.0496   -7.3028 H         1 UNK         0.0819 
     92 H92        22.4873   -1.8791   -8.3981 H         1 UNK         0.0819 
     93 H93        22.4326   -2.3459   -6.7040 H         1 UNK         0.0819 
     94 H94        22.5675   -0.3475   -5.1740 H         1 UNK         0.3041 
     95 H95        23.4852    2.5156   -3.7675 H         1 UNK         0.0784 
     96 H96        21.5441    0.9436   -3.8153 H         1 UNK         0.0793 
     97 H97        22.5293   -0.3194   -3.0682 H         1 UNK         0.0793 
     98 H98        22.1491    1.1524   -2.1873 H         1 UNK         0.0793 
     99 H99        24.9525    2.0558   -2.1630 H         1 UNK         0.3024 
    100 H100       27.2701    0.8229   -1.5561 H         1 UNK         0.1171 
    101 H101       26.3590    0.6704    0.8152 H         1 UNK         0.0786 
    102 H102       24.8155    0.1240    0.1692 H         1 UNK         0.0786 
    103 H103       25.4041    1.7469   -0.1747 H         1 UNK         0.0786 
    104 H104       26.3951   -1.9280   -1.5053 H         1 UNK         0.2977 
    105 H105       26.9906   -0.2069   -5.0120 H         1 UNK         0.3127 
    106 H106       29.6474    0.6556   -5.5700 H         1 UNK         0.0770 
    107 H107       27.2588    2.1390   -4.3584 H         1 UNK         0.0814 
    108 H108       28.8998    2.7572   -4.3853 H         1 UNK         0.0814 
    109 H109       28.5458    1.2943   -3.4888 H         1 UNK         0.0814 
    110 H110       26.5044    1.5818   -6.9657 H         1 UNK         0.2983 
    111 H111       27.5125    3.6058   -8.7169 H         1 UNK         0.0947 
    112 H112       25.2833    3.3842   -9.8125 H         1 UNK         0.0806 
    113 H113       25.1205    3.4546   -8.0641 H         1 UNK         0.0806 
    114 H114       24.9611    1.9141   -8.9031 H         1 UNK         0.0806 
    115 H115       26.7157    0.1229   -9.3110 H         1 UNK         0.3000 
    116 H116       27.3198    0.1568  -12.0638 H         1 UNK         0.0850 
    117 H117       27.2740   -2.3450  -11.8429 H         1 UNK         0.0810 
    118 H118       25.9082   -1.5838  -11.0448 H         1 UNK         0.0810 
    119 H119       27.2621   -2.1863  -10.0902 H         1 UNK         0.0810 
    120 H120       29.4028   -0.8420   -9.2942 H         1 UNK         0.3040 
    121 H121       31.6663   -1.4278  -11.0710 H         1 UNK         0.0766 
    122 H122       32.8103   -1.9682   -8.9323 H         1 UNK         0.0812 
    123 H123       31.4437   -1.3305   -8.0261 H         1 UNK         0.0812 
    124 H124       31.2519   -2.7726   -9.0319 H         1 UNK         0.0812 
    125 H125       30.4110    1.4087   -9.6563 H         1 UNK         0.3205 
    126 H126       31.0370    3.4843   -9.3465 H         1 UNK         0.0754 
    127 H127       32.8107    4.5174  -10.6847 H         1 UNK         0.0769 
    128 H128       31.9389    3.3698  -11.6858 H         1 UNK         0.0769 
    129 H129       33.5292    2.9564  -11.0447 H         1 UNK         0.0769 
    130 H130       31.9884    1.2978   -7.5115 H         1 UNK         0.2981 
    131 H131       34.3326    2.4822   -6.2152 H         1 UNK         0.0541 
    132 H132       30.9751    3.2172   -6.0903 H         1 UNK         0.3459 
    133 H133       31.0454    4.0294   -4.5401 H         1 UNK         0.3459 
    134 H134       34.2669    0.6162   -4.6565 H         1 UNK         0.0612 
    135 H135       34.2653    0.0643   -6.3054 H         1 UNK         0.0612 
    136 H136       33.1913   -2.2727   -6.4118 H         1 UNK         0.0624 
    137 H137       33.7968   -2.1726   -4.7778 H         1 UNK         0.0624 
@<TRIPOS>BOND
     1    1    2 1    
     2    1   72 1    
     3    1   73 1    
     4    1   74 1    
     5    2    3 2    
     6    2    4 am   BACKBONE|DICT|INTERRES
     7    4    5 1    
     8    4   75 1    
     9    5    6 1    
    10    5   35 1    
    11    5   76 1    
    12    6    7 1    
    13    6   77 1    
    14    6   78 1    
    15    7    8 1    
    16    8    9 1    
    17    8   79 1    
    18    8   80 1    
    19    9   10 ar   
    20    9   14 ar   
    21   10   11 ar   
    22   10   81 1    
    23   11   12 ar   
    24   11   71 1    
    25   12   13 ar   
    26   12   82 1    
    27   13   14 ar   
    28   13   15 1    
    29   14   83 1    
    30   15   16 1    
    31   15   84 1    
    32   15   85 1    
    33   16   17 1    
    34   17   18 1    
    35   17   86 1    
    36   17   87 1    
    37   18   19 1    
    38   18   37 1    
    39   18   88 1    
    40   19   20 am   BACKBONE|DICT|INTERRES
    41   19   89 1    
    42   20   21 2    
    43   20   22 1    
    44   22   23 1    
    45   22   24 1    
    46   22   90 1    
    47   23   91 1    
    48   23   92 1    
    49   23   93 1    
    50   24   25 am   BACKBONE|DICT|INTERRES
    51   24   94 1    
    52   25   26 2    
    53   25   27 1    
    54   27   28 1    
    55   27   29 1    
    56   27   95 1    
    57   28   96 1    
    58   28   97 1    
    59   28   98 1    
    60   29   30 am   BACKBONE|DICT|INTERRES
    61   29   99 1    
    62   30   31 2    
    63   30   32 1    
    64   32   33 1    
    65   32   34 1    
    66   32  100 1    
    67   33  101 1    
    68   33  102 1    
    69   33  103 1    
    70   34   35 am   BACKBONE|DICT|INTERRES
    71   34  104 1    
    72   35   36 2    
    73   37   38 2    
    74   37   39 am   BACKBONE|DICT|INTERRES
    75   39   40 1    
    76   39  105 1    
    77   40   41 1    
    78   40   42 1    
    79   40  106 1    
    80   41  107 1    
    81   41  108 1    
    82   41  109 1    
    83   42   43 2    
    84   42   44 am   BACKBONE|DICT|INTERRES
    85   44   45 1    
    86   44  110 1    
    87   45   46 1    
    88   45   47 1    
    89   45  111 1    
    90   46  112 1    
    91   46  113 1    
    92   46  114 1    
    93   47   48 2    
    94   47   49 am   BACKBONE|DICT|INTERRES
    95   49   50 1    
    96   49  115 1    
    97   50   51 1    
    98   50   52 1    
    99   50  116 1    
   100   51  117 1    
   101   51  118 1    
   102   51  119 1    
   103   52   53 2    
   104   52   54 am   BACKBONE|DICT|INTERRES
   105   54   55 1    
   106   54  120 1    
   107   55   56 1    
   108   55   57 1    
   109   55  121 1    
   110   56  122 1    
   111   56  123 1    
   112   56  124 1    
   113   57   58 2    
   114   57   59 am   BACKBONE|DICT|INTERRES
   115   59   60 1    
   116   59  125 1    
   117   60   61 1    
   118   60   62 1    
   119   60  126 1    
   120   61  127 1    
   121   61  128 1    
   122   61  129 1    
   123   62   63 2    
   124   62   64 am   BACKBONE|DICT|INTERRES
   125   64   65 1    
   126   64  130 1    
   127   65   66 1    
   128   65   69 1    
   129   65  131 1    
   130   66   67 am   BACKBONE|DICT|INTERRES
   131   66   68 2    
   132   67  132 1    
   133   67  133 1    
   134   69   70 1    
   135   69  134 1    
   136   69  135 1    
   137   70   71 1    
   138   71  136 1    
   139   71  137 1    
@<TRIPOS>SUBSTRUCTURE
     1 UNK         1 GROUP             0       ****    0 ROOT    
