@<TRIPOS>MOLECULE
3R137
137   139    1
SMALL
USER_CHARGES


@<TRIPOS>ATOM
      1 CA         26.3548   -0.8545    2.1530 C.3       0 UNK        -0.2020 
      2 C          27.0554   -0.6394    0.8203 C.2       0 UNK         0.4855 
      3 O          27.6502    0.4170    0.6026 O.2       0 UNK        -0.5197 
      4 N          26.9822   -1.6259   -0.0824 N.am      1 UNK        -0.4892 
      5 CA         27.5995   -1.6207   -1.4156 C.3       1 UNK         0.0835 
      6 C6         27.8206   -3.0650   -1.9402 C.3       12 UNK        -0.0855 
      7 S7         29.2218   -3.8531   -1.0801 S.3       12 UNK        -0.2931 
      8 C8         29.6489   -5.2224   -2.2059 C.3       12 UNK         0.0378 
      9 C9         30.1488   -4.7614   -3.5725 C.ar      12 UNK        -0.0802 
     10 C10        31.3080   -3.9865   -3.6882 C.ar      12 UNK        -0.0944 
     11 C11        31.7967   -3.6159   -4.9464 C.ar      12 UNK        -0.0787 
     12 C12        31.1136   -4.0352   -6.0941 C.ar      12 UNK        -0.0862 
     13 C13        29.9481   -4.8021   -5.9989 C.ar      12 UNK        -0.0733 
     14 C14        29.4764   -5.1635   -4.7305 C.ar      12 UNK        -0.0832 
     15 C15        29.2650   -5.2812   -7.2805 C.3       12 UNK         0.0240 
     16 S16        27.4524   -5.4724   -7.1386 S.3       12 UNK        -0.2522 
     17 C17        26.8249   -4.3319   -8.4217 C.3       12 UNK        -0.0967 
     18 CA         26.4146   -2.9389   -7.8804 C.3       5 UNK         0.0660 
     19 N          25.4989   -3.0488   -6.7432 N.am      5 UNK        -0.4015 
     20 C          24.7426   -2.0696   -6.2355 C.2       4 UNK         0.4946 
     21 O          24.8251   -0.8926   -6.5948 O.2       4 UNK        -0.5353 
     22 CA         23.6995   -2.4854   -5.1808 C.3       4 UNK         0.0277 
     23 CB         24.0271   -3.8151   -4.4668 C.3       4 UNK        -0.1981 
     24 N          23.5814   -1.4353   -4.1775 N.am      4 UNK        -0.4209 
     25 C          22.4499   -0.8412   -3.7771 C.2       3 UNK         0.4942 
     26 O          21.3354   -1.1244   -4.2197 O.2       3 UNK        -0.5208 
     27 CA         22.5613    0.2365   -2.6774 C.3       3 UNK         0.0250 
     28 CB         21.9674   -0.2791   -1.3555 C.3       3 UNK        -0.1990 
     29 N          23.9384    0.6723   -2.4348 N.am      3 UNK        -0.4232 
     30 C          24.6432    1.4662   -3.2514 C.2       2 UNK         0.4993 
     31 O          24.1588    2.0491   -4.2208 O.2       2 UNK        -0.5286 
     32 CA         26.1467    1.6161   -2.9574 C.3       2 UNK         0.0209 
     33 CB         26.4420    2.9886   -2.3322 C.3       2 UNK        -0.1931 
     34 N          26.7164    0.5667   -2.1007 N.am      2 UNK        -0.4546 
     35 C          26.8113   -0.7351   -2.4048 C.2       1 UNK         0.5154 
     36 O          26.3252   -1.2234   -3.4256 O.2       1 UNK        -0.5181 
     37 C          27.6460   -2.0357   -7.6686 C.2       5 UNK         0.5014 
     38 O          28.2561   -1.6581   -8.6695 O.2       5 UNK        -0.5248 
     39 N          28.0076   -1.6811   -6.4249 N.am      6 UNK        -0.4434 
     40 CA         29.2016   -0.8679   -6.1483 C.3       6 UNK         0.0363 
     41 CB         29.5002   -0.8297   -4.6473 C.3       6 UNK        -0.1936 
     42 C          29.1156    0.5638   -6.6985 C.2       6 UNK         0.5081 
     43 O          30.1510    1.1468   -7.0207 O.2       6 UNK        -0.5248 
     44 N          27.8903    1.0926   -6.8236 N.am      7 UNK        -0.4718 
     45 CA         27.6137    2.3841   -7.4544 C.3       7 UNK         0.0273 
     46 CB         26.1977    2.8434   -7.0741 C.3       7 UNK        -0.1935 
     47 C          27.7800    2.3427   -8.9838 C.2       7 UNK         0.5018 
     48 O          28.1871    3.3454   -9.5701 O.2       7 UNK        -0.5186 
     49 N          27.4797    1.1889   -9.5979 N.am      8 UNK        -0.4240 
     50 CA         27.6556    0.9412  -11.0306 C.3       8 UNK         0.0235 
     51 CB         26.7278   -0.2004  -11.4793 C.3       8 UNK        -0.2000 
     52 C          29.1201    0.6257  -11.3701 C.2       8 UNK         0.4941 
     53 O          29.6377    1.1421  -12.3607 O.2       8 UNK        -0.5273 
     54 N          29.7658   -0.1949  -10.5289 N.am      9 UNK        -0.4262 
     55 CA         31.1867   -0.5423  -10.6146 C.3       9 UNK         0.0264 
     56 CB         31.4603   -1.7494   -9.7033 C.3       9 UNK        -0.1955 
     57 C          32.1273    0.6260  -10.2616 C.2       9 UNK         0.5031 
     58 O          33.2832    0.6064  -10.6870 O.2       9 UNK        -0.5390 
     59 N          31.6157    1.6081   -9.5036 N.am      10 UNK        -0.4204 
     60 CA         32.2894    2.8068   -8.9970 C.3       10 UNK         0.0237 
     61 CB         32.7324    3.7309  -10.1519 C.3       10 UNK        -0.1985 
     62 C          33.4249    2.4511   -8.0217 C.2       10 UNK         0.4970 
     63 O          34.5655    2.8777   -8.2141 O.2       10 UNK        -0.4914 
     64 N          33.0848    1.6622   -6.9938 N.am      11 UNK        -0.4285 
     65 CA         34.0216    1.2012   -5.9528 C.3       11 UNK         0.1007 
     66 C          34.5238    2.3148   -4.9866 C.2       11 UNK         0.5703 
     67 N          33.8868    3.4784   -4.9207 N.am      11 UNK        -0.7361 
     68 O          35.5150    2.1186   -4.2872 O.2       11 UNK        -0.4986 
     69 C69        33.4599    0.0010   -5.1466 C.3       12 UNK        -0.0947 
     70 S70        32.9717   -1.4021   -6.2048 S.3       12 UNK        -0.2240 
     71 C71        33.0941   -2.8185   -5.0588 C.3       12 UNK         0.0194 
     72 H72        25.8686   -1.8285    2.2067 H         1 UNK         0.0906 
     73 H73        27.0743   -0.7896    2.9688 H         1 UNK         0.0906 
     74 H74        25.5961   -0.0875    2.3062 H         1 UNK         0.0906 
     75 H75        26.4754   -2.4678    0.1528 H         1 UNK         0.3140 
     76 H76        28.5823   -1.1493   -1.3346 H         1 UNK         0.1085 
     77 H77        28.0365   -3.0732   -3.0084 H         1 UNK         0.0836 
     78 H78        26.9228   -3.6727   -1.8144 H         1 UNK         0.0836 
     79 H79        30.4267   -5.8270   -1.7375 H         1 UNK         0.0731 
     80 H80        28.7793   -5.8737   -2.3071 H         1 UNK         0.0731 
     81 H81        31.8368   -3.6873   -2.7935 H         1 UNK         0.1312 
     82 H82        31.5012   -3.7714   -7.0687 H         1 UNK         0.1406 
     83 H83        28.5950   -5.7830   -4.6408 H         1 UNK         0.1631 
     84 H84        29.6912   -6.2464   -7.5564 H         1 UNK         0.0717 
     85 H85        29.5005   -4.5995   -8.0989 H         1 UNK         0.0717 
     86 H86        25.9483   -4.8074   -8.8647 H         1 UNK         0.0934 
     87 H87        27.5391   -4.2497   -9.2438 H         1 UNK         0.0934 
     88 H88        25.8459   -2.4505   -8.6749 H         1 UNK         0.0739 
     89 H89        25.3964   -3.9796   -6.3653 H         1 UNK         0.3093 
     90 H90        22.7539   -2.6029   -5.7138 H         1 UNK         0.0818 
     91 H91        23.2955   -4.0290   -3.6873 H         1 UNK         0.0819 
     92 H92        24.0039   -4.6607   -5.1550 H         1 UNK         0.0819 
     93 H93        25.0104   -3.7893   -3.9939 H         1 UNK         0.0819 
     94 H94        24.4717   -1.1121   -3.8082 H         1 UNK         0.3041 
     95 H95        21.9761    1.0987   -3.0046 H         1 UNK         0.0784 
     96 H96        20.9261   -0.5778   -1.4852 H         1 UNK         0.0793 
     97 H97        22.5105   -1.1473   -0.9798 H         1 UNK         0.0793 
     98 H98        21.9869    0.4908   -0.5838 H         1 UNK         0.0793 
     99 H99        24.4192    0.2519   -1.6531 H         1 UNK         0.3024 
    100 H100       26.6578    1.5621   -3.9214 H         1 UNK         0.1171 
    101 H101       27.5141    3.1512   -2.2200 H         1 UNK         0.0786 
    102 H102       25.9816    3.0902   -1.3486 H         1 UNK         0.0786 
    103 H103       26.0580    3.7955   -2.9583 H         1 UNK         0.0786 
    104 H104       27.1131    0.8593   -1.2109 H         1 UNK         0.2977 
    105 H105       27.4520   -1.9852   -5.6369 H         1 UNK         0.3127 
    106 H106       30.0412   -1.3587   -6.6408 H         1 UNK         0.0770 
    107 H107       28.8127   -0.1721   -4.1221 H         1 UNK         0.0814 
    108 H108       30.4998   -0.4411   -4.4663 H         1 UNK         0.0814 
    109 H109       29.4620   -1.8213   -4.2031 H         1 UNK         0.0814 
    110 H110       27.0936    0.5365   -6.5407 H         1 UNK         0.2983 
    111 H111       28.3260    3.1167   -7.0674 H         1 UNK         0.0947 
    112 H112       25.9502    3.7907   -7.5553 H         1 UNK         0.0806 
    113 H113       26.1074    2.9970   -5.9990 H         1 UNK         0.0806 
    114 H114       25.4407    2.1165   -7.3724 H         1 UNK         0.0806 
    115 H115       27.2024    0.4001   -9.0306 H         1 UNK         0.3000 
    116 H116       27.3709    1.8421  -11.5792 H         1 UNK         0.0850 
    117 H117       26.8199   -0.3753  -12.5521 H         1 UNK         0.0810 
    118 H118       25.6828    0.0367  -11.2792 H         1 UNK         0.0810 
    119 H119       26.9606   -1.1397  -10.9769 H         1 UNK         0.0810 
    120 H120       29.2341   -0.6398   -9.7809 H         1 UNK         0.3040 
    121 H121       31.4013   -0.8349  -11.6446 H         1 UNK         0.0766 
    122 H122       31.2327   -1.5212   -8.6628 H         1 UNK         0.0812 
    123 H123       30.8604   -2.6119   -9.9942 H         1 UNK         0.0812 
    124 H124       32.5082   -2.0490   -9.7501 H         1 UNK         0.0812 
    125 H125       30.6843    1.4616   -9.1352 H         1 UNK         0.3205 
    126 H126       31.5434    3.3495   -8.4141 H         1 UNK         0.0754 
    127 H127       33.1318    4.6699   -9.7670 H         1 UNK         0.0769 
    128 H128       31.8938    3.9776  -10.8034 H         1 UNK         0.0769 
    129 H129       33.5104    3.2752  -10.7651 H         1 UNK         0.0769 
    130 H130       32.1196    1.3569   -6.9081 H         1 UNK         0.2981 
    131 H131       34.9121    0.8440   -6.4737 H         1 UNK         0.0541 
    132 H132       34.2252    4.1918   -4.2946 H         1 UNK         0.3459 
    133 H133       33.0712    3.6470   -5.4867 H         1 UNK         0.3459 
    134 H134       32.6014    0.3119   -4.5518 H         1 UNK         0.0612 
    135 H135       34.2126   -0.3508   -4.4388 H         1 UNK         0.0612 
    136 H136       33.8825   -3.4832   -5.4136 H         1 UNK         0.0624 
    137 H137       33.4077   -2.4721   -4.0734 H         1 UNK         0.0624 
@<TRIPOS>BOND
     1    1    2 1    
     2    1   72 1    
     3    1   73 1    
     4    1   74 1    
     5    2    3 2    
     6    2    4 am   BACKBONE|DICT|INTERRES
     7    4    5 1    
     8    4   75 1    
     9    5    6 1    
    10    5   35 1    
    11    5   76 1    
    12    6    7 1    
    13    6   77 1    
    14    6   78 1    
    15    7    8 1    
    16    8    9 1    
    17    8   79 1    
    18    8   80 1    
    19    9   10 ar   
    20    9   14 ar   
    21   10   11 ar   
    22   10   81 1    
    23   11   12 ar   
    24   11   71 1    
    25   12   13 ar   
    26   12   82 1    
    27   13   14 ar   
    28   13   15 1    
    29   14   83 1    
    30   15   16 1    
    31   15   84 1    
    32   15   85 1    
    33   16   17 1    
    34   17   18 1    
    35   17   86 1    
    36   17   87 1    
    37   18   19 1    
    38   18   37 1    
    39   18   88 1    
    40   19   20 am   BACKBONE|DICT|INTERRES
    41   19   89 1    
    42   20   21 2    
    43   20   22 1    
    44   22   23 1    
    45   22   24 1    
    46   22   90 1    
    47   23   91 1    
    48   23   92 1    
    49   23   93 1    
    50   24   25 am   BACKBONE|DICT|INTERRES
    51   24   94 1    
    52   25   26 2    
    53   25   27 1    
    54   27   28 1    
    55   27   29 1    
    56   27   95 1    
    57   28   96 1    
    58   28   97 1    
    59   28   98 1    
    60   29   30 am   BACKBONE|DICT|INTERRES
    61   29   99 1    
    62   30   31 2    
    63   30   32 1    
    64   32   33 1    
    65   32   34 1    
    66   32  100 1    
    67   33  101 1    
    68   33  102 1    
    69   33  103 1    
    70   34   35 am   BACKBONE|DICT|INTERRES
    71   34  104 1    
    72   35   36 2    
    73   37   38 2    
    74   37   39 am   BACKBONE|DICT|INTERRES
    75   39   40 1    
    76   39  105 1    
    77   40   41 1    
    78   40   42 1    
    79   40  106 1    
    80   41  107 1    
    81   41  108 1    
    82   41  109 1    
    83   42   43 2    
    84   42   44 am   BACKBONE|DICT|INTERRES
    85   44   45 1    
    86   44  110 1    
    87   45   46 1    
    88   45   47 1    
    89   45  111 1    
    90   46  112 1    
    91   46  113 1    
    92   46  114 1    
    93   47   48 2    
    94   47   49 am   BACKBONE|DICT|INTERRES
    95   49   50 1    
    96   49  115 1    
    97   50   51 1    
    98   50   52 1    
    99   50  116 1    
   100   51  117 1    
   101   51  118 1    
   102   51  119 1    
   103   52   53 2    
   104   52   54 am   BACKBONE|DICT|INTERRES
   105   54   55 1    
   106   54  120 1    
   107   55   56 1    
   108   55   57 1    
   109   55  121 1    
   110   56  122 1    
   111   56  123 1    
   112   56  124 1    
   113   57   58 2    
   114   57   59 am   BACKBONE|DICT|INTERRES
   115   59   60 1    
   116   59  125 1    
   117   60   61 1    
   118   60   62 1    
   119   60  126 1    
   120   61  127 1    
   121   61  128 1    
   122   61  129 1    
   123   62   63 2    
   124   62   64 am   BACKBONE|DICT|INTERRES
   125   64   65 1    
   126   64  130 1    
   127   65   66 1    
   128   65   69 1    
   129   65  131 1    
   130   66   67 am   BACKBONE|DICT|INTERRES
   131   66   68 2    
   132   67  132 1    
   133   67  133 1    
   134   69   70 1    
   135   69  134 1    
   136   69  135 1    
   137   70   71 1    
   138   71  136 1    
   139   71  137 1    
@<TRIPOS>SUBSTRUCTURE
     1 UNK         1 GROUP             0       ****    0 ROOT    
