@<TRIPOS>MOLECULE
3R137
137   139    1
SMALL
USER_CHARGES


@<TRIPOS>ATOM
      1 CA         28.7775   -4.6911   -3.3711 C.3       0 UNK        -0.2020 
      2 C          28.1559   -3.5292   -2.6110 C.2       0 UNK         0.4855 
      3 O          27.2765   -3.7425   -1.7756 O.2       0 UNK        -0.5197 
      4 N          28.6151   -2.3048   -2.8910 N.am      1 UNK        -0.4892 
      5 CA         28.1102   -1.0545   -2.3110 C.3       1 UNK         0.0835 
      6 C6         29.1924    0.0608   -2.2787 C.3       12 UNK        -0.0855 
      7 S7         30.7937   -0.4702   -1.5773 S.3       12 UNK        -0.2931 
      8 C8         31.9152   -0.2255   -2.9931 C.3       12 UNK         0.0378 
      9 C9         31.8037   -1.3473   -4.0170 C.ar      12 UNK        -0.0802 
     10 C10        32.6658   -2.4460   -3.9432 C.ar      12 UNK        -0.0944 
     11 C11        32.5975   -3.4684   -4.8940 C.ar      12 UNK        -0.0787 
     12 C12        31.6424   -3.3995   -5.9107 C.ar      12 UNK        -0.0862 
     13 C13        30.7826   -2.3027   -6.0007 C.ar      12 UNK        -0.0733 
     14 C14        30.8674   -1.2795   -5.0538 C.ar      12 UNK        -0.0832 
     15 C15        29.7849   -2.2065   -7.1407 C.3       12 UNK         0.0240 
     16 S16        28.1354   -2.7462   -6.6062 S.3       12 UNK        -0.2522 
     17 C17        27.1270   -1.3091   -7.0901 C.3       12 UNK        -0.0967 
     18 CA         25.6469   -1.6929   -7.3306 C.3       5 UNK         0.0660 
     19 N          25.0171   -2.2143   -6.1216 N.am      5 UNK        -0.4015 
     20 C          23.9395   -3.0068   -6.1006 C.2       4 UNK         0.4946 
     21 O          23.3114   -3.3327   -7.1092 O.2       4 UNK        -0.5353 
     22 CA         23.5000   -3.5513   -4.7348 C.3       4 UNK         0.0277 
     23 CB         24.4366   -4.6860   -4.2858 C.3       4 UNK        -0.1981 
     24 N          23.4926   -2.5024   -3.7145 N.am      4 UNK        -0.4209 
     25 C          22.4031   -2.0749   -3.0594 C.2       3 UNK         0.4942 
     26 O          21.2724   -2.5299   -3.2373 O.2       3 UNK        -0.5208 
     27 CA         22.5934   -0.9557   -2.0156 C.3       3 UNK         0.0250 
     28 CB         22.6874   -1.5525   -0.6017 C.3       3 UNK        -0.1990 
     29 N          23.7757   -0.1297   -2.2651 N.am      3 UNK        -0.4232 
     30 C          23.9106    0.7157   -3.2958 C.2       2 UNK         0.4993 
     31 O          22.9922    1.0018   -4.0641 O.2       2 UNK        -0.5286 
     32 CA         25.3053    1.3250   -3.5302 C.3       2 UNK         0.0209 
     33 CB         25.3140    2.8249   -3.1921 C.3       2 UNK        -0.1931 
     34 N          26.4089    0.6639   -2.8171 N.am      2 UNK        -0.4546 
     35 C          26.8259   -0.5909   -3.0422 C.2       1 UNK         0.5154 
     36 O          26.2192   -1.3594   -3.7931 O.2       1 UNK        -0.5181 
     37 C          24.8713   -0.4766   -7.8550 C.2       5 UNK         0.5014 
     38 O          24.8553    0.5606   -7.1898 O.2       5 UNK        -0.5248 
     39 N          24.3305   -0.5843   -9.0767 N.am      6 UNK        -0.4434 
     40 CA         23.7470    0.5372   -9.8258 C.3       6 UNK         0.0363 
     41 CB         23.0321    0.0003  -11.0760 C.3       6 UNK        -0.1936 
     42 C          24.7884    1.6062  -10.2152 C.2       6 UNK         0.5081 
     43 O          24.4344    2.7747  -10.3676 O.2       6 UNK        -0.5248 
     44 N          26.0585    1.1910  -10.3307 N.am      7 UNK        -0.4718 
     45 CA         27.2256    2.0550  -10.5303 C.3       7 UNK         0.0273 
     46 CB         28.3872    1.1937  -11.0572 C.3       7 UNK        -0.1935 
     47 C          27.6607    2.8140   -9.2599 C.2       7 UNK         0.5018 
     48 O          28.5593    3.6507   -9.3491 O.2       7 UNK        -0.5186 
     49 N          27.0575    2.4939   -8.1043 N.am      8 UNK        -0.4240 
     50 CA         27.2886    3.0296   -6.7562 C.3       8 UNK         0.0235 
     51 CB         27.0582    4.5516   -6.6929 C.3       8 UNK        -0.2000 
     52 C          28.6356    2.6441   -6.1201 C.2       8 UNK         0.4941 
     53 O          28.6584    2.3563   -4.9236 O.2       8 UNK        -0.5273 
     54 N          29.7206    2.6327   -6.9003 N.am      9 UNK        -0.4262 
     55 CA         31.0712    2.2995   -6.4591 C.3       9 UNK         0.0264 
     56 CB         31.8259    3.5894   -6.0990 C.3       9 UNK        -0.1955 
     57 C          31.8044    1.5237   -7.5584 C.2       9 UNK         0.5031 
     58 O          31.5434    1.7439   -8.7432 O.2       9 UNK        -0.5390 
     59 N          32.7301    0.6605   -7.1326 N.am      10 UNK        -0.4204 
     60 CA         33.6626   -0.1308   -7.9303 C.3       10 UNK         0.0237 
     61 CB         32.9346   -1.2055   -8.7686 C.3       10 UNK        -0.1985 
     62 C          34.6816   -0.7380   -6.9493 C.2       10 UNK         0.4970 
     63 O          34.7158   -0.3285   -5.7848 O.2       10 UNK        -0.4914 
     64 N          35.4957   -1.6852   -7.4329 N.am      11 UNK        -0.4285 
     65 CA         36.5321   -2.4085   -6.6691 C.3       11 UNK         0.1007 
     66 C          37.7255   -1.5252   -6.1867 C.2       11 UNK         0.5703 
     67 N          37.9391   -0.3401   -6.7466 N.am      11 UNK        -0.7361 
     68 O          38.4968   -1.9300   -5.3195 O.2       11 UNK        -0.4986 
     69 C69        35.9492   -3.3049   -5.5346 C.3       12 UNK        -0.0947 
     70 S70        34.8021   -4.5795   -6.1587 S.3       12 UNK        -0.2240 
     71 C71        33.5539   -4.6490   -4.8338 C.3       12 UNK         0.0194 
     72 H72        28.0349   -5.1512   -4.0223 H         1 UNK         0.0906 
     73 H73        29.6156   -4.3695   -3.9887 H         1 UNK         0.0906 
     74 H74        29.1403   -5.4467   -2.6751 H         1 UNK         0.0906 
     75 H75        29.3388   -2.1989   -3.5880 H         1 UNK         0.3140 
     76 H76        27.8195   -1.2572   -1.2780 H         1 UNK         0.1085 
     77 H77        28.8527    0.9005   -1.6705 H         1 UNK         0.0836 
     78 H78        29.3504    0.4717   -3.2745 H         1 UNK         0.0836 
     79 H79        32.9389   -0.1729   -2.6185 H         1 UNK         0.0731 
     80 H80        31.7216    0.7419   -3.4575 H         1 UNK         0.0731 
     81 H81        33.4017   -2.4966   -3.1526 H         1 UNK         0.1312 
     82 H82        31.5873   -4.1901   -6.6467 H         1 UNK         0.1406 
     83 H83        30.2005   -0.4335   -5.1352 H         1 UNK         0.1631 
     84 H84        30.1007   -2.8237   -7.9823 H         1 UNK         0.0717 
     85 H85        29.7641   -1.1807   -7.5100 H         1 UNK         0.0717 
     86 H86        27.2172   -0.5473   -6.3124 H         1 UNK         0.0934 
     87 H87        27.5500   -0.8753   -7.9982 H         1 UNK         0.0934 
     88 H88        25.6262   -2.4765   -8.0915 H         1 UNK         0.0739 
     89 H89        25.4832   -1.9702   -5.2486 H         1 UNK         0.3093 
     90 H90        22.5000   -3.9715   -4.8602 H         1 UNK         0.0818 
     91 H91        24.4709   -5.4831   -5.0297 H         1 UNK         0.0819 
     92 H92        25.4579   -4.3330   -4.1358 H         1 UNK         0.0819 
     93 H93        24.0982   -5.1297   -3.3495 H         1 UNK         0.0819 
     94 H94        24.3835   -2.0539   -3.5253 H         1 UNK         0.3041 
     95 H95        21.7125   -0.3114   -2.0593 H         1 UNK         0.0784 
     96 H96        21.8033   -2.1484   -0.3707 H         1 UNK         0.0793 
     97 H97        23.5560   -2.2041   -0.4947 H         1 UNK         0.0793 
     98 H98        22.7563   -0.7717    0.1562 H         1 UNK         0.0793 
     99 H99        24.5778   -0.2880   -1.6732 H         1 UNK         0.3024 
    100 H100       25.5010    1.2126   -4.5981 H         1 UNK         0.1171 
    101 H101       26.2662    3.2853   -3.4574 H         1 UNK         0.0786 
    102 H102       24.5371    3.3551   -3.7450 H         1 UNK         0.0786 
    103 H103       25.1375    3.0001   -2.1302 H         1 UNK         0.0786 
    104 H104       26.9406    1.2467   -2.1870 H         1 UNK         0.2977 
    105 H105       24.3622   -1.4775   -9.5487 H         1 UNK         0.3127 
    106 H106       23.0052    1.0201   -9.1858 H         1 UNK         0.0770 
    107 H107       23.7218   -0.5086  -11.7505 H         1 UNK         0.0814 
    108 H108       22.5680    0.8127  -11.6375 H         1 UNK         0.0814 
    109 H109       22.2403   -0.7006  -10.8109 H         1 UNK         0.0814 
    110 H110       26.2429    0.2046  -10.2235 H         1 UNK         0.2983 
    111 H111       26.9786    2.8044  -11.2858 H         1 UNK         0.0947 
    112 H112       29.2662    1.8060  -11.2649 H         1 UNK         0.0806 
    113 H113       28.1209    0.6904  -11.9868 H         1 UNK         0.0806 
    114 H114       28.6882    0.4335  -10.3348 H         1 UNK         0.0806 
    115 H115       26.3273    1.7926   -8.1438 H         1 UNK         0.3000 
    116 H116       26.5182    2.5687   -6.1396 H         1 UNK         0.0850 
    117 H117       27.1093    4.9077   -5.6631 H         1 UNK         0.0810 
    118 H118       26.0756    4.8197   -7.0805 H         1 UNK         0.0810 
    119 H119       27.8067    5.1034   -7.2613 H         1 UNK         0.0810 
    120 H120       29.6208    2.8693   -7.8851 H         1 UNK         0.3040 
    121 H121       31.0202    1.6688   -5.5726 H         1 UNK         0.0766 
    122 H122       31.3270    4.1266   -5.2923 H         1 UNK         0.0812 
    123 H123       31.9001    4.2625   -6.9531 H         1 UNK         0.0812 
    124 H124       32.8405    3.3712   -5.7641 H         1 UNK         0.0812 
    125 H125       32.9229    0.5746   -6.1401 H         1 UNK         0.3205 
    126 H126       34.1973    0.5482   -8.5969 H         1 UNK         0.0754 
    127 H127       33.6055   -1.6498   -9.5038 H         1 UNK         0.0769 
    128 H128       32.0923   -0.7948   -9.3243 H         1 UNK         0.0769 
    129 H129       32.5600   -2.0156   -8.1464 H         1 UNK         0.0769 
    130 H130       35.4076   -1.9525   -8.4020 H         1 UNK         0.2981 
    131 H131       36.9902   -3.0831   -7.3928 H         1 UNK         0.0541 
    132 H132       37.3276    0.0030   -7.4691 H         1 UNK         0.3459 
    133 H133       38.7196    0.2167   -6.4365 H         1 UNK         0.3459 
    134 H134       36.7470   -3.8347   -5.0120 H         1 UNK         0.0612 
    135 H135       35.4530   -2.6927   -4.7814 H         1 UNK         0.0612 
    136 H136       34.0532   -4.7021   -3.8651 H         1 UNK         0.0624 
    137 H137       32.9856   -5.5741   -4.9365 H         1 UNK         0.0624 
@<TRIPOS>BOND
     1    1    2 1    
     2    1   72 1    
     3    1   73 1    
     4    1   74 1    
     5    2    3 2    
     6    2    4 am   BACKBONE|DICT|INTERRES
     7    4    5 1    
     8    4   75 1    
     9    5    6 1    
    10    5   35 1    
    11    5   76 1    
    12    6    7 1    
    13    6   77 1    
    14    6   78 1    
    15    7    8 1    
    16    8    9 1    
    17    8   79 1    
    18    8   80 1    
    19    9   10 ar   
    20    9   14 ar   
    21   10   11 ar   
    22   10   81 1    
    23   11   12 ar   
    24   11   71 1    
    25   12   13 ar   
    26   12   82 1    
    27   13   14 ar   
    28   13   15 1    
    29   14   83 1    
    30   15   16 1    
    31   15   84 1    
    32   15   85 1    
    33   16   17 1    
    34   17   18 1    
    35   17   86 1    
    36   17   87 1    
    37   18   19 1    
    38   18   37 1    
    39   18   88 1    
    40   19   20 am   BACKBONE|DICT|INTERRES
    41   19   89 1    
    42   20   21 2    
    43   20   22 1    
    44   22   23 1    
    45   22   24 1    
    46   22   90 1    
    47   23   91 1    
    48   23   92 1    
    49   23   93 1    
    50   24   25 am   BACKBONE|DICT|INTERRES
    51   24   94 1    
    52   25   26 2    
    53   25   27 1    
    54   27   28 1    
    55   27   29 1    
    56   27   95 1    
    57   28   96 1    
    58   28   97 1    
    59   28   98 1    
    60   29   30 am   BACKBONE|DICT|INTERRES
    61   29   99 1    
    62   30   31 2    
    63   30   32 1    
    64   32   33 1    
    65   32   34 1    
    66   32  100 1    
    67   33  101 1    
    68   33  102 1    
    69   33  103 1    
    70   34   35 am   BACKBONE|DICT|INTERRES
    71   34  104 1    
    72   35   36 2    
    73   37   38 2    
    74   37   39 am   BACKBONE|DICT|INTERRES
    75   39   40 1    
    76   39  105 1    
    77   40   41 1    
    78   40   42 1    
    79   40  106 1    
    80   41  107 1    
    81   41  108 1    
    82   41  109 1    
    83   42   43 2    
    84   42   44 am   BACKBONE|DICT|INTERRES
    85   44   45 1    
    86   44  110 1    
    87   45   46 1    
    88   45   47 1    
    89   45  111 1    
    90   46  112 1    
    91   46  113 1    
    92   46  114 1    
    93   47   48 2    
    94   47   49 am   BACKBONE|DICT|INTERRES
    95   49   50 1    
    96   49  115 1    
    97   50   51 1    
    98   50   52 1    
    99   50  116 1    
   100   51  117 1    
   101   51  118 1    
   102   51  119 1    
   103   52   53 2    
   104   52   54 am   BACKBONE|DICT|INTERRES
   105   54   55 1    
   106   54  120 1    
   107   55   56 1    
   108   55   57 1    
   109   55  121 1    
   110   56  122 1    
   111   56  123 1    
   112   56  124 1    
   113   57   58 2    
   114   57   59 am   BACKBONE|DICT|INTERRES
   115   59   60 1    
   116   59  125 1    
   117   60   61 1    
   118   60   62 1    
   119   60  126 1    
   120   61  127 1    
   121   61  128 1    
   122   61  129 1    
   123   62   63 2    
   124   62   64 am   BACKBONE|DICT|INTERRES
   125   64   65 1    
   126   64  130 1    
   127   65   66 1    
   128   65   69 1    
   129   65  131 1    
   130   66   67 am   BACKBONE|DICT|INTERRES
   131   66   68 2    
   132   67  132 1    
   133   67  133 1    
   134   69   70 1    
   135   69  134 1    
   136   69  135 1    
   137   70   71 1    
   138   71  136 1    
   139   71  137 1    
@<TRIPOS>SUBSTRUCTURE
     1 UNK         1 GROUP             0       ****    0 ROOT    
