@<TRIPOS>MOLECULE
3R137
137   139    1
SMALL
USER_CHARGES


@<TRIPOS>ATOM
      1 CA         25.5287   -0.4214   -0.3177 C.3       0 UNK        -0.2020 
      2 C          26.2403   -1.7582   -0.1639 C.2       0 UNK         0.4855 
      3 O          25.8182   -2.5781    0.6522 O.2       0 UNK        -0.5197 
      4 N          27.3130   -1.9584   -0.9406 N.am      1 UNK        -0.4892 
      5 CA         28.1511   -3.1617   -1.0507 C.3       1 UNK         0.0835 
      6 C6         28.7264   -3.7063    0.2909 C.3       12 UNK        -0.0855 
      7 S7         29.5634   -2.4477    1.3211 S.3       12 UNK        -0.2931 
      8 C8         31.2876   -2.5312    0.7268 C.3       12 UNK         0.0378 
      9 C9         31.4073   -2.1173   -0.7336 C.ar      12 UNK        -0.0802 
     10 C10        31.9639   -2.9910   -1.6742 C.ar      12 UNK        -0.0944 
     11 C11        32.0119   -2.6353   -3.0255 C.ar      12 UNK        -0.0787 
     12 C12        31.4868   -1.4070   -3.4350 C.ar      12 UNK        -0.0862 
     13 C13        30.9318   -0.5271   -2.5049 C.ar      12 UNK        -0.0733 
     14 C14        30.9197   -0.8743   -1.1523 C.ar      12 UNK        -0.0832 
     15 C15        30.2941    0.7706   -2.9661 C.3       12 UNK         0.0240 
     16 S16        28.5010    0.5415   -3.1474 S.3       12 UNK        -0.2522 
     17 C17        27.9889    2.1611   -3.8075 C.3       12 UNK        -0.0967 
     18 CA         27.4568    2.0827   -5.2623 C.3       5 UNK         0.0660 
     19 N          26.3887    1.0756   -5.3903 N.am      5 UNK        -0.4015 
     20 C          25.6504    0.7948   -6.4719 C.2       4 UNK         0.4946 
     21 O          25.7111    1.4217   -7.5302 O.2       4 UNK        -0.5353 
     22 CA         24.6785   -0.3905   -6.3493 C.3       4 UNK         0.0277 
     23 CB         23.4905   -0.2585   -7.3211 C.3       4 UNK        -0.1981 
     24 N          25.3634   -1.6580   -6.6046 N.am      4 UNK        -0.4209 
     25 C          26.1880   -2.2702   -5.7462 C.2       3 UNK         0.4942 
     26 O          26.4522   -1.8371   -4.6207 O.2       3 UNK        -0.5208 
     27 CA         26.8264   -3.5768   -6.2346 C.3       3 UNK         0.0250 
     28 CB         27.9732   -3.2951   -7.2174 C.3       3 UNK        -0.1990 
     29 N          27.3596   -4.2940   -5.0826 N.am      3 UNK        -0.4232 
     30 C          27.2376   -5.6022   -4.8322 C.2       2 UNK         0.4993 
     31 O          26.7075   -6.3981   -5.6090 O.2       2 UNK        -0.5286 
     32 CA         27.7947   -6.1227   -3.4901 C.3       2 UNK         0.0209 
     33 CB         28.9337   -7.1319   -3.7167 C.3       2 UNK        -0.1931 
     34 N          28.2669   -5.0566   -2.5962 N.am      2 UNK        -0.4546 
     35 C          27.4598   -4.2775   -1.8618 C.2       1 UNK         0.5154 
     36 O          26.2359   -4.4244   -1.8300 O.2       1 UNK        -0.5181 
     37 C          27.0877    3.5063   -5.7403 C.2       5 UNK         0.5014 
     38 O          27.9817    4.2654   -6.1156 O.2       5 UNK        -0.5248 
     39 N          25.7948    3.8563   -5.6984 N.am      6 UNK        -0.4434 
     40 CA         25.2620    5.1354   -6.1697 C.3       6 UNK         0.0363 
     41 CB         23.8623    5.3422   -5.5672 C.3       6 UNK        -0.1936 
     42 C          25.2043    5.2579   -7.7052 C.2       6 UNK         0.5081 
     43 O          25.1239    6.3823   -8.2018 O.2       6 UNK        -0.5248 
     44 N          25.2154    4.1276   -8.4254 N.am      7 UNK        -0.4718 
     45 CA         25.0837    4.0665   -9.8833 C.3       7 UNK         0.0273 
     46 CB         23.7769    3.3370  -10.2393 C.3       7 UNK        -0.1935 
     47 C          26.2821    3.3707  -10.5429 C.2       7 UNK         0.5018 
     48 O          26.7656    3.8518  -11.5690 O.2       7 UNK        -0.5186 
     49 N          26.7301    2.2493   -9.9665 N.am      8 UNK        -0.4240 
     50 CA         27.8498    1.4508  -10.4592 C.3       8 UNK         0.0235 
     51 CB         27.6940    0.0116   -9.9394 C.3       8 UNK        -0.2000 
     52 C          29.1910    2.0385   -9.9999 C.2       8 UNK         0.4941 
     53 O          29.2754    2.6090   -8.9088 O.2       8 UNK        -0.5273 
     54 N          30.2394    1.8306  -10.8072 N.am      9 UNK        -0.4262 
     55 CA         31.6292    2.1766  -10.4902 C.3       9 UNK         0.0264 
     56 CB         32.4353    2.2670  -11.7997 C.3       9 UNK        -0.1955 
     57 C          32.2263    1.1631   -9.4942 C.2       9 UNK         0.5031 
     58 O          33.1088    0.3809   -9.8569 O.2       9 UNK        -0.5390 
     59 N          31.6786    1.1654   -8.2708 N.am      10 UNK        -0.4204 
     60 CA         31.8695    0.1689   -7.2132 C.3       10 UNK         0.0237 
     61 CB         33.3117    0.2176   -6.6557 C.3       10 UNK        -0.1985 
     62 C          31.4094   -1.2243   -7.6904 C.2       10 UNK         0.4970 
     63 O          30.3949   -1.3127   -8.3835 O.2       10 UNK        -0.4914 
     64 N          32.1446   -2.2769   -7.3183 N.am      11 UNK        -0.4285 
     65 CA         31.8821   -3.6667   -7.7303 C.3       11 UNK         0.1007 
     66 C          32.5221   -4.0472   -9.0989 C.2       11 UNK         0.5703 
     67 N          33.1627   -3.1325   -9.8190 N.am      11 UNK        -0.7361 
     68 O          32.4256   -5.1953   -9.5260 O.2       11 UNK        -0.4986 
     69 C69        32.2482   -4.6776   -6.6096 C.3       12 UNK        -0.0947 
     70 S70        31.3296   -4.3540   -5.0663 S.3       12 UNK        -0.2240 
     71 C71        32.6211   -3.5694   -4.0561 C.3       12 UNK         0.0194 
     72 H72        25.5258    0.1134    0.6317 H         1 UNK         0.0906 
     73 H73        26.0077    0.2142   -1.0626 H         1 UNK         0.0906 
     74 H74        24.4950   -0.5804   -0.6233 H         1 UNK         0.0906 
     75 H75        27.5649   -1.2289   -1.5956 H         1 UNK         0.3140 
     76 H76        28.9907   -2.8383   -1.6641 H         1 UNK         0.1085 
     77 H77        29.4312   -4.5177    0.0996 H         1 UNK         0.0836 
     78 H78        27.9298   -4.1474    0.8922 H         1 UNK         0.0836 
     79 H79        31.6719   -3.5404    0.8838 H         1 UNK         0.0731 
     80 H80        31.9043   -1.8673    1.3340 H         1 UNK         0.0731 
     81 H81        32.3485   -3.9514   -1.3584 H         1 UNK         0.1312 
     82 H82        31.4883   -1.1489   -4.4835 H         1 UNK         0.1406 
     83 H83        30.4742   -0.2023   -0.4308 H         1 UNK         0.1631 
     84 H84        30.7221    1.0924   -3.9168 H         1 UNK         0.0717 
     85 H85        30.4930    1.5651   -2.2451 H         1 UNK         0.0717 
     86 H86        27.2208    2.5597   -3.1414 H         1 UNK         0.0934 
     87 H87        28.8289    2.8562   -3.7437 H         1 UNK         0.0934 
     88 H88        28.2711    1.7436   -5.9064 H         1 UNK         0.0739 
     89 H89        26.3230    0.4296   -4.6127 H         1 UNK         0.3093 
     90 H90        24.2788   -0.4009   -5.3326 H         1 UNK         0.0818 
     91 H91        23.8117   -0.2830   -8.3635 H         1 UNK         0.0819 
     92 H92        22.7673   -1.0609   -7.1746 H         1 UNK         0.0819 
     93 H93        22.9632    0.6839   -7.1667 H         1 UNK         0.0819 
     94 H94        25.2253   -2.0643   -7.5188 H         1 UNK         0.3041 
     95 H95        26.0545   -4.1713   -6.7280 H         1 UNK         0.0784 
     96 H96        27.6307   -2.7327   -8.0869 H         1 UNK         0.0793 
     97 H97        28.7658   -2.7146   -6.7436 H         1 UNK         0.0793 
     98 H98        28.4128   -4.2227   -7.5837 H         1 UNK         0.0793 
     99 H99        27.7309   -3.6948   -4.3581 H         1 UNK         0.3024 
    100 H100       26.9751   -6.6506   -2.9965 H         1 UNK         0.1171 
    101 H101       29.2958   -7.5413   -2.7735 H         1 UNK         0.0786 
    102 H102       28.5947   -7.9732   -4.3227 H         1 UNK         0.0786 
    103 H103       29.7795   -6.6817   -4.2349 H         1 UNK         0.0786 
    104 H104       29.2634   -4.8869   -2.5900 H         1 UNK         0.2977 
    105 H105       25.1250    3.1766   -5.3696 H         1 UNK         0.3127 
    106 H106       25.9110    5.9340   -5.8036 H         1 UNK         0.0770 
    107 H107       23.1638    4.5704   -5.8933 H         1 UNK         0.0814 
    108 H108       23.4465    6.3048   -5.8683 H         1 UNK         0.0814 
    109 H109       23.8924    5.3322   -4.4775 H         1 UNK         0.0814 
    110 H110       25.3346    3.2396   -7.9448 H         1 UNK         0.2983 
    111 H111       25.0313    5.0724  -10.3058 H         1 UNK         0.0947 
    112 H112       23.7545    2.3250   -9.8322 H         1 UNK         0.0806 
    113 H113       23.6539    3.2587  -11.3204 H         1 UNK         0.0806 
    114 H114       22.9092    3.8715   -9.8526 H         1 UNK         0.0806 
    115 H115       26.3159    1.9411   -9.0876 H         1 UNK         0.3000 
    116 H116       27.8204    1.4342  -11.5510 H         1 UNK         0.0850 
    117 H117       26.7372   -0.4186  -10.2353 H         1 UNK         0.0810 
    118 H118       27.7587   -0.0325   -8.8509 H         1 UNK         0.0810 
    119 H119       28.4781   -0.6355  -10.3348 H         1 UNK         0.0810 
    120 H120       30.0948    1.3139  -11.6631 H         1 UNK         0.3040 
    121 H121       31.6521    3.1604  -10.0159 H         1 UNK         0.0766 
    122 H122       33.4736    2.5347  -11.5995 H         1 UNK         0.0812 
    123 H123       32.0281    3.0288  -12.4646 H         1 UNK         0.0812 
    124 H124       32.4418    1.3188  -12.3389 H         1 UNK         0.0812 
    125 H125       30.8873    1.7927   -8.1463 H         1 UNK         0.3205 
    126 H126       31.1896    0.4515   -6.4084 H         1 UNK         0.0754 
    127 H127       33.4201   -0.3976   -5.7622 H         1 UNK         0.0769 
    128 H128       33.5832    1.2339   -6.3699 H         1 UNK         0.0769 
    129 H129       34.0468   -0.1236   -7.3856 H         1 UNK         0.0769 
    130 H130       32.9871   -2.1225   -6.7869 H         1 UNK         0.2981 
    131 H131       30.8094   -3.7711   -7.8966 H         1 UNK         0.0541 
    132 H132       33.2143   -2.1723   -9.5122 H         1 UNK         0.3459 
    133 H133       33.5650   -3.3985  -10.7036 H         1 UNK         0.3459 
    134 H134       32.0013   -5.6948   -6.9186 H         1 UNK         0.0612 
    135 H135       33.3222   -4.6730   -6.4163 H         1 UNK         0.0612 
    136 H136       33.2228   -4.3442   -3.5785 H         1 UNK         0.0624 
    137 H137       33.2996   -2.9974   -4.6898 H         1 UNK         0.0624 
@<TRIPOS>BOND
     1    1    2 1    
     2    1   72 1    
     3    1   73 1    
     4    1   74 1    
     5    2    3 2    
     6    2    4 am   BACKBONE|DICT|INTERRES
     7    4    5 1    
     8    4   75 1    
     9    5    6 1    
    10    5   35 1    
    11    5   76 1    
    12    6    7 1    
    13    6   77 1    
    14    6   78 1    
    15    7    8 1    
    16    8    9 1    
    17    8   79 1    
    18    8   80 1    
    19    9   10 ar   
    20    9   14 ar   
    21   10   11 ar   
    22   10   81 1    
    23   11   12 ar   
    24   11   71 1    
    25   12   13 ar   
    26   12   82 1    
    27   13   14 ar   
    28   13   15 1    
    29   14   83 1    
    30   15   16 1    
    31   15   84 1    
    32   15   85 1    
    33   16   17 1    
    34   17   18 1    
    35   17   86 1    
    36   17   87 1    
    37   18   19 1    
    38   18   37 1    
    39   18   88 1    
    40   19   20 am   BACKBONE|DICT|INTERRES
    41   19   89 1    
    42   20   21 2    
    43   20   22 1    
    44   22   23 1    
    45   22   24 1    
    46   22   90 1    
    47   23   91 1    
    48   23   92 1    
    49   23   93 1    
    50   24   25 am   BACKBONE|DICT|INTERRES
    51   24   94 1    
    52   25   26 2    
    53   25   27 1    
    54   27   28 1    
    55   27   29 1    
    56   27   95 1    
    57   28   96 1    
    58   28   97 1    
    59   28   98 1    
    60   29   30 am   BACKBONE|DICT|INTERRES
    61   29   99 1    
    62   30   31 2    
    63   30   32 1    
    64   32   33 1    
    65   32   34 1    
    66   32  100 1    
    67   33  101 1    
    68   33  102 1    
    69   33  103 1    
    70   34   35 am   BACKBONE|DICT|INTERRES
    71   34  104 1    
    72   35   36 2    
    73   37   38 2    
    74   37   39 am   BACKBONE|DICT|INTERRES
    75   39   40 1    
    76   39  105 1    
    77   40   41 1    
    78   40   42 1    
    79   40  106 1    
    80   41  107 1    
    81   41  108 1    
    82   41  109 1    
    83   42   43 2    
    84   42   44 am   BACKBONE|DICT|INTERRES
    85   44   45 1    
    86   44  110 1    
    87   45   46 1    
    88   45   47 1    
    89   45  111 1    
    90   46  112 1    
    91   46  113 1    
    92   46  114 1    
    93   47   48 2    
    94   47   49 am   BACKBONE|DICT|INTERRES
    95   49   50 1    
    96   49  115 1    
    97   50   51 1    
    98   50   52 1    
    99   50  116 1    
   100   51  117 1    
   101   51  118 1    
   102   51  119 1    
   103   52   53 2    
   104   52   54 am   BACKBONE|DICT|INTERRES
   105   54   55 1    
   106   54  120 1    
   107   55   56 1    
   108   55   57 1    
   109   55  121 1    
   110   56  122 1    
   111   56  123 1    
   112   56  124 1    
   113   57   58 2    
   114   57   59 am   BACKBONE|DICT|INTERRES
   115   59   60 1    
   116   59  125 1    
   117   60   61 1    
   118   60   62 1    
   119   60  126 1    
   120   61  127 1    
   121   61  128 1    
   122   61  129 1    
   123   62   63 2    
   124   62   64 am   BACKBONE|DICT|INTERRES
   125   64   65 1    
   126   64  130 1    
   127   65   66 1    
   128   65   69 1    
   129   65  131 1    
   130   66   67 am   BACKBONE|DICT|INTERRES
   131   66   68 2    
   132   67  132 1    
   133   67  133 1    
   134   69   70 1    
   135   69  134 1    
   136   69  135 1    
   137   70   71 1    
   138   71  136 1    
   139   71  137 1    
@<TRIPOS>SUBSTRUCTURE
     1 UNK         1 GROUP             0       ****    0 ROOT    
