@<TRIPOS>MOLECULE
3R137
137   139    1
SMALL
USER_CHARGES


@<TRIPOS>ATOM
      1 CA         28.6595   -3.5707   -8.6986 C.3       0 UNK        -0.2020 
      2 C          27.9694   -4.2805   -7.5438 C.2       0 UNK         0.4855 
      3 O          26.8054   -4.6639   -7.6604 O.2       0 UNK        -0.5197 
      4 N          28.6948   -4.4780   -6.4381 N.am      1 UNK        -0.4892 
      5 CA         28.2080   -5.1010   -5.2040 C.3       1 UNK         0.0835 
      6 C6         29.3669   -5.7533   -4.3992 C.3       12 UNK        -0.0855 
      7 S7         30.8233   -4.6812   -4.1286 S.3       12 UNK        -0.2931 
      8 C8         30.6140   -4.1095   -2.4084 C.3       12 UNK         0.0378 
      9 C9         30.4467   -2.5967   -2.3203 C.ar      12 UNK        -0.0802 
     10 C10        31.4564   -1.7486   -2.7858 C.ar      12 UNK        -0.0944 
     11 C11        31.3349   -0.3567   -2.6809 C.ar      12 UNK        -0.0787 
     12 C12        30.1789    0.1804   -2.1070 C.ar      12 UNK        -0.0862 
     13 C13        29.1586   -0.6539   -1.6389 C.ar      12 UNK        -0.0733 
     14 C14        29.3020   -2.0410   -1.7426 C.ar      12 UNK        -0.0832 
     15 C15        27.9112   -0.0582   -1.0000 C.3       12 UNK         0.0240 
     16 S16        26.4879   -0.0466   -2.1373 S.3       12 UNK        -0.2522 
     17 C17        27.0200    1.1459   -3.4149 C.3       12 UNK        -0.0967 
     18 CA         27.3719    0.4424   -4.7583 C.3       5 UNK         0.0660 
     19 N          26.2396   -0.3125   -5.3041 N.am      5 UNK        -0.4015 
     20 C          25.1379    0.2074   -5.8681 C.2       4 UNK         0.4946 
     21 O          24.9519    1.4134   -6.0394 O.2       4 UNK        -0.5353 
     22 CA         24.0354   -0.7849   -6.2670 C.3       4 UNK         0.0277 
     23 CB         24.5136   -1.7581   -7.3563 C.3       4 UNK        -0.1981 
     24 N          23.5687   -1.5318   -5.1010 N.am      4 UNK        -0.4209 
     25 C          22.8358   -1.0203   -4.1032 C.2       3 UNK         0.4942 
     26 O          22.3331    0.1035   -4.1300 O.2       3 UNK        -0.5208 
     27 CA         22.6502   -1.8868   -2.8440 C.3       3 UNK         0.0250 
     28 CB         21.4675   -2.8642   -2.9966 C.3       3 UNK        -0.1990 
     29 N          23.8809   -2.5639   -2.4055 N.am      3 UNK        -0.4232 
     30 C          24.5466   -3.5595   -3.0065 C.2       2 UNK         0.4993 
     31 O          24.1597   -4.1296   -4.0299 O.2       2 UNK        -0.5286 
     32 CA         25.8785   -3.9630   -2.3550 C.3       2 UNK         0.0209 
     33 CB         25.6390   -4.8460   -1.1193 C.3       2 UNK        -0.1931 
     34 N          26.7621   -4.6743   -3.2808 N.am      2 UNK        -0.4546 
     35 C          27.3581   -4.1313   -4.3523 C.2       1 UNK         0.5154 
     36 O          27.2538   -2.9400   -4.6606 O.2       1 UNK        -0.5181 
     37 C          27.9818    1.3722   -5.8341 C.2       5 UNK         0.5014 
     38 O          28.2081    0.9214   -6.9598 O.2       5 UNK        -0.5248 
     39 N          28.2094    2.6502   -5.4956 N.am      6 UNK        -0.4434 
     40 CA         28.8117    3.6705   -6.3590 C.3       6 UNK         0.0363 
     41 CB         28.9659    4.9768   -5.5645 C.3       6 UNK        -0.1936 
     42 C          28.0649    3.9319   -7.6804 C.2       6 UNK         0.5081 
     43 O          28.7019    4.3557   -8.6448 O.2       6 UNK        -0.5248 
     44 N          26.7562    3.6377   -7.7373 N.am      7 UNK        -0.4718 
     45 CA         25.9437    3.7335   -8.9572 C.3       7 UNK         0.0273 
     46 CB         24.4549    3.5940   -8.6025 C.3       7 UNK        -0.1935 
     47 C          26.3397    2.7119  -10.0413 C.2       7 UNK         0.5018 
     48 O          26.0473    2.9443  -11.2147 O.2       7 UNK        -0.5186 
     49 N          27.0146    1.6261   -9.6409 N.am      8 UNK        -0.4240 
     50 CA         27.6210    0.6290  -10.5232 C.3       8 UNK         0.0235 
     51 CB         26.9293   -0.7250  -10.2873 C.3       8 UNK        -0.2000 
     52 C          29.1421    0.5570  -10.2897 C.2       8 UNK         0.4941 
     53 O          29.7471   -0.4869  -10.5439 O.2       8 UNK        -0.5273 
     54 N          29.7341    1.6535   -9.7872 N.am      9 UNK        -0.4262 
     55 CA         31.1218    1.8336   -9.3420 C.3       9 UNK         0.0264 
     56 CB         32.1288    1.6494  -10.4948 C.3       9 UNK        -0.1955 
     57 C          31.4878    0.9734   -8.1205 C.2       9 UNK         0.5031 
     58 O          31.8651    1.5303   -7.0884 O.2       9 UNK        -0.5390 
     59 N          31.3734   -0.3543   -8.2659 N.am      10 UNK        -0.4204 
     60 CA         31.5877   -1.4338   -7.2919 C.3       10 UNK         0.0237 
     61 CB         30.5526   -1.3516   -6.1558 C.3       10 UNK        -0.1985 
     62 C          33.0231   -1.5518   -6.7431 C.2       10 UNK         0.4970 
     63 O          33.6045   -2.6350   -6.8054 O.2       10 UNK        -0.4914 
     64 N          33.5658   -0.4439   -6.2344 N.am      11 UNK        -0.4285 
     65 CA         34.9285   -0.3016   -5.7019 C.3       11 UNK         0.1007 
     66 C          35.9730    0.1132   -6.7792 C.2       11 UNK         0.5703 
     67 N          35.5909    0.3442   -8.0304 N.am      11 UNK        -0.7361 
     68 O          37.1607    0.2101   -6.4788 O.2       11 UNK        -0.4986 
     69 C69        34.9483    0.6603   -4.4815 C.3       12 UNK        -0.0947 
     70 S70        34.1099   -0.0564   -3.0292 S.3       12 UNK        -0.2240 
     71 C71        32.4112    0.5847   -3.2208 C.3       12 UNK         0.0194 
     72 H72        28.7334   -2.5024   -8.5018 H         1 UNK         0.0906 
     73 H73        29.6641   -3.9632   -8.8538 H         1 UNK         0.0906 
     74 H74        28.1008   -3.7074   -9.6242 H         1 UNK         0.0906 
     75 H75        29.6364   -4.1176   -6.3788 H         1 UNK         0.3140 
     76 H76        27.5280   -5.9060   -5.4932 H         1 UNK         0.1085 
     77 H77        29.0224   -6.1696   -3.4515 H         1 UNK         0.0836 
     78 H78        29.7251   -6.6178   -4.9604 H         1 UNK         0.0836 
     79 H79        29.7723   -4.6183   -1.9371 H         1 UNK         0.0731 
     80 H80        31.4979   -4.3966   -1.8374 H         1 UNK         0.0731 
     81 H81        32.3350   -2.1828   -3.2423 H         1 UNK         0.1312 
     82 H82        30.0730    1.2534   -2.0252 H         1 UNK         0.1406 
     83 H83        28.5239   -2.6882   -1.3656 H         1 UNK         0.1631 
     84 H84        28.1023    0.9566   -0.6477 H         1 UNK         0.0717 
     85 H85        27.6463   -0.6388   -0.1151 H         1 UNK         0.0717 
     86 H86        26.2125    1.8667   -3.5572 H         1 UNK         0.0934 
     87 H87        27.8694    1.7085   -3.0266 H         1 UNK         0.0934 
     88 H88        28.1469   -0.2963   -4.5473 H         1 UNK         0.0739 
     89 H89        26.3338   -1.3201   -5.2095 H         1 UNK         0.3093 
     90 H90        23.1957   -0.2132   -6.6684 H         1 UNK         0.0818 
     91 H91        23.7131   -2.4304   -7.6652 H         1 UNK         0.0819 
     92 H92        24.8368   -1.2136   -8.2430 H         1 UNK         0.0819 
     93 H93        25.3511   -2.3715   -7.0214 H         1 UNK         0.0819 
     94 H94        23.9133   -2.4809   -4.9814 H         1 UNK         0.3041 
     95 H95        22.3971   -1.2009   -2.0336 H         1 UNK         0.0784 
     96 H96        20.5420   -2.3217   -3.1938 H         1 UNK         0.0793 
     97 H97        21.6120   -3.5614   -3.8222 H         1 UNK         0.0793 
     98 H98        21.3146   -3.4466   -2.0881 H         1 UNK         0.0793 
     99 H99        24.3070   -2.1524   -1.5860 H         1 UNK         0.3024 
    100 H100       26.3843   -3.0475   -2.0458 H         1 UNK         0.1171 
    101 H101       25.0183   -4.3348   -0.3821 H         1 UNK         0.0786 
    102 H102       26.5770   -5.1013   -0.6257 H         1 UNK         0.0786 
    103 H103       25.1325   -5.7761   -1.3810 H         1 UNK         0.0786 
    104 H104       26.8571   -5.6668   -3.1250 H         1 UNK         0.2977 
    105 H105       27.9601    2.9511   -4.5654 H         1 UNK         0.3127 
    106 H106       29.8095    3.3155   -6.6238 H         1 UNK         0.0770 
    107 H107       28.0013    5.3668   -5.2370 H         1 UNK         0.0814 
    108 H108       29.4397    5.7493   -6.1722 H         1 UNK         0.0814 
    109 H109       29.5911    4.8354   -4.6826 H         1 UNK         0.0814 
    110 H110       26.3069    3.2416   -6.9208 H         1 UNK         0.2983 
    111 H111       26.0989    4.7286   -9.3802 H         1 UNK         0.0947 
    112 H112       23.8297    3.7791   -9.4770 H         1 UNK         0.0806 
    113 H113       24.1571    4.3083   -7.8348 H         1 UNK         0.0806 
    114 H114       24.2164    2.5929   -8.2435 H         1 UNK         0.0806 
    115 H115       27.2315    1.5209   -8.6527 H         1 UNK         0.3000 
    116 H116       27.4844    0.9059  -11.5705 H         1 UNK         0.0850 
    117 H117       27.3470   -1.5029  -10.9277 H         1 UNK         0.0810 
    118 H118       27.0398   -1.0507   -9.2531 H         1 UNK         0.0810 
    119 H119       25.8637   -0.6656  -10.5082 H         1 UNK         0.0810 
    120 H120       29.1390    2.4535   -9.6048 H         1 UNK         0.3040 
    121 H121       31.1891    2.8741   -9.0195 H         1 UNK         0.0766 
    122 H122       32.1305    0.6327  -10.8884 H         1 UNK         0.0812 
    123 H123       33.1440    1.8685  -10.1612 H         1 UNK         0.0812 
    124 H124       31.9083    2.3251  -11.3212 H         1 UNK         0.0812 
    125 H125       30.9989   -0.6526   -9.1655 H         1 UNK         0.3205 
    126 H126       31.3950   -2.3584   -7.8374 H         1 UNK         0.0754 
    127 H127       30.6867   -2.1618   -5.4430 H         1 UNK         0.0769 
    128 H128       29.5346   -1.4257   -6.5360 H         1 UNK         0.0769 
    129 H129       30.6263   -0.4170   -5.6014 H         1 UNK         0.0769 
    130 H130       33.0154    0.4105   -6.3044 H         1 UNK         0.2981 
    131 H131       35.2615   -1.2803   -5.3515 H         1 UNK         0.0541 
    132 H132       34.6237    0.2532   -8.2920 H         1 UNK         0.3459 
    133 H133       36.2816    0.6040   -8.7169 H         1 UNK         0.3459 
    134 H134       34.5022    1.6242   -4.7333 H         1 UNK         0.0612 
    135 H135       35.9732    0.8727   -4.1720 H         1 UNK         0.0612 
    136 H136       32.3593    1.5507   -2.7165 H         1 UNK         0.0624 
    137 H137       32.1970    0.7786   -4.2706 H         1 UNK         0.0624 
@<TRIPOS>BOND
     1    1    2 1    
     2    1   72 1    
     3    1   73 1    
     4    1   74 1    
     5    2    3 2    
     6    2    4 am   BACKBONE|DICT|INTERRES
     7    4    5 1    
     8    4   75 1    
     9    5    6 1    
    10    5   35 1    
    11    5   76 1    
    12    6    7 1    
    13    6   77 1    
    14    6   78 1    
    15    7    8 1    
    16    8    9 1    
    17    8   79 1    
    18    8   80 1    
    19    9   10 ar   
    20    9   14 ar   
    21   10   11 ar   
    22   10   81 1    
    23   11   12 ar   
    24   11   71 1    
    25   12   13 ar   
    26   12   82 1    
    27   13   14 ar   
    28   13   15 1    
    29   14   83 1    
    30   15   16 1    
    31   15   84 1    
    32   15   85 1    
    33   16   17 1    
    34   17   18 1    
    35   17   86 1    
    36   17   87 1    
    37   18   19 1    
    38   18   37 1    
    39   18   88 1    
    40   19   20 am   BACKBONE|DICT|INTERRES
    41   19   89 1    
    42   20   21 2    
    43   20   22 1    
    44   22   23 1    
    45   22   24 1    
    46   22   90 1    
    47   23   91 1    
    48   23   92 1    
    49   23   93 1    
    50   24   25 am   BACKBONE|DICT|INTERRES
    51   24   94 1    
    52   25   26 2    
    53   25   27 1    
    54   27   28 1    
    55   27   29 1    
    56   27   95 1    
    57   28   96 1    
    58   28   97 1    
    59   28   98 1    
    60   29   30 am   BACKBONE|DICT|INTERRES
    61   29   99 1    
    62   30   31 2    
    63   30   32 1    
    64   32   33 1    
    65   32   34 1    
    66   32  100 1    
    67   33  101 1    
    68   33  102 1    
    69   33  103 1    
    70   34   35 am   BACKBONE|DICT|INTERRES
    71   34  104 1    
    72   35   36 2    
    73   37   38 2    
    74   37   39 am   BACKBONE|DICT|INTERRES
    75   39   40 1    
    76   39  105 1    
    77   40   41 1    
    78   40   42 1    
    79   40  106 1    
    80   41  107 1    
    81   41  108 1    
    82   41  109 1    
    83   42   43 2    
    84   42   44 am   BACKBONE|DICT|INTERRES
    85   44   45 1    
    86   44  110 1    
    87   45   46 1    
    88   45   47 1    
    89   45  111 1    
    90   46  112 1    
    91   46  113 1    
    92   46  114 1    
    93   47   48 2    
    94   47   49 am   BACKBONE|DICT|INTERRES
    95   49   50 1    
    96   49  115 1    
    97   50   51 1    
    98   50   52 1    
    99   50  116 1    
   100   51  117 1    
   101   51  118 1    
   102   51  119 1    
   103   52   53 2    
   104   52   54 am   BACKBONE|DICT|INTERRES
   105   54   55 1    
   106   54  120 1    
   107   55   56 1    
   108   55   57 1    
   109   55  121 1    
   110   56  122 1    
   111   56  123 1    
   112   56  124 1    
   113   57   58 2    
   114   57   59 am   BACKBONE|DICT|INTERRES
   115   59   60 1    
   116   59  125 1    
   117   60   61 1    
   118   60   62 1    
   119   60  126 1    
   120   61  127 1    
   121   61  128 1    
   122   61  129 1    
   123   62   63 2    
   124   62   64 am   BACKBONE|DICT|INTERRES
   125   64   65 1    
   126   64  130 1    
   127   65   66 1    
   128   65   69 1    
   129   65  131 1    
   130   66   67 am   BACKBONE|DICT|INTERRES
   131   66   68 2    
   132   67  132 1    
   133   67  133 1    
   134   69   70 1    
   135   69  134 1    
   136   69  135 1    
   137   70   71 1    
   138   71  136 1    
   139   71  137 1    
@<TRIPOS>SUBSTRUCTURE
     1 UNK         1 GROUP             0       ****    0 ROOT    
