@<TRIPOS>MOLECULE
3R137
137   139    1
SMALL
USER_CHARGES


@<TRIPOS>ATOM
      1 CA         30.2834   -0.2102    0.6456 C.3       0 UNK        -0.2020 
      2 C          29.4847   -1.0595   -0.3312 C.2       0 UNK         0.4855 
      3 O          29.0479   -0.5537   -1.3646 O.2       0 UNK        -0.5197 
      4 N          29.2983   -2.3472   -0.0160 N.am      1 UNK        -0.4892 
      5 CA         28.5494   -3.3074   -0.8317 C.3       1 UNK         0.0835 
      6 C6         28.8947   -4.7816   -0.4876 C.3       12 UNK        -0.0855 
      7 S7         30.6924   -5.1170   -0.4643 S.3       12 UNK        -0.2931 
      8 C8         31.0045   -5.7600   -2.1436 C.3       12 UNK         0.0378 
      9 C9         30.7171   -4.7431   -3.2437 C.ar      12 UNK        -0.0802 
     10 C10        31.2311   -3.4418   -3.1721 C.ar      12 UNK        -0.0944 
     11 C11        30.9390   -2.5053   -4.1681 C.ar      12 UNK        -0.0787 
     12 C12        30.1454   -2.8871   -5.2520 C.ar      12 UNK        -0.0862 
     13 C13        29.6746   -4.1967   -5.3680 C.ar      12 UNK        -0.0733 
     14 C14        29.9522   -5.1174   -4.3538 C.ar      12 UNK        -0.0832 
     15 C15        28.9077   -4.6228   -6.6125 C.3       12 UNK         0.0240 
     16 S16        27.1587   -4.9994   -6.2836 S.3       12 UNK        -0.2522 
     17 C17        26.5309   -3.4193   -5.6340 C.3       12 UNK        -0.0967 
     18 CA         26.1486   -2.4027   -6.7457 C.3       5 UNK         0.0660 
     19 N          24.8895   -1.7242   -6.4414 N.am      5 UNK        -0.4015 
     20 C          24.1296   -1.0672   -7.3271 C.2       4 UNK         0.4946 
     21 O          24.3685   -1.0157   -8.5337 O.2       4 UNK        -0.5353 
     22 CA         22.8974   -0.3314   -6.7684 C.3       4 UNK         0.0277 
     23 CB         21.6493   -1.2231   -6.8673 C.3       4 UNK        -0.1981 
     24 N          23.0677    0.1153   -5.3808 N.am      4 UNK        -0.4209 
     25 C          23.9115    1.0857   -5.0023 C.2       3 UNK         0.4942 
     26 O          24.6186    1.7196   -5.7841 O.2       3 UNK        -0.5208 
     27 CA         24.0290    1.3556   -3.4926 C.3       3 UNK         0.0250 
     28 CB         22.8596    2.2258   -3.0043 C.3       3 UNK        -0.1990 
     29 N          24.1276    0.1455   -2.6644 N.am      3 UNK        -0.4232 
     30 C          25.0581   -0.8078   -2.8099 C.2       2 UNK         0.4993 
     31 O          25.8712   -0.8386   -3.7374 O.2       2 UNK        -0.5286 
     32 CA         25.0806   -1.9330   -1.7722 C.3       2 UNK         0.0209 
     33 CB         24.0873   -3.0510   -2.1347 C.3       2 UNK        -0.1931 
     34 N          26.4426   -2.4555   -1.7413 N.am      2 UNK        -0.4546 
     35 C          27.0407   -3.0254   -0.6929 C.2       1 UNK         0.5154 
     36 O          26.4642   -3.2887    0.3653 O.2       1 UNK        -0.5181 
     37 C          27.2574   -1.3597   -6.9772 C.2       5 UNK         0.5014 
     38 O          27.9394   -1.3992   -8.0025 O.2       5 UNK        -0.5248 
     39 N          27.3892   -0.4190   -6.0310 N.am      6 UNK        -0.4434 
     40 CA         28.3317    0.6989   -6.0684 C.3       6 UNK         0.0363 
     41 CB         28.2520    1.4805   -4.7487 C.3       6 UNK        -0.1936 
     42 C          28.1112    1.6297   -7.2701 C.2       6 UNK         0.5081 
     43 O          29.0882    2.0747   -7.8656 O.2       6 UNK        -0.5248 
     44 N          26.8476    1.8653   -7.6500 N.am      7 UNK        -0.4718 
     45 CA         26.4725    2.6243   -8.8479 C.3       7 UNK         0.0273 
     46 CB         24.9466    2.8043   -8.8835 C.3       7 UNK        -0.1935 
     47 C          26.9681    1.9977  -10.1655 C.2       7 UNK         0.5018 
     48 O          27.2297    2.7366  -11.1155 O.2       7 UNK        -0.5186 
     49 N          27.0937    0.6639  -10.2014 N.am      8 UNK        -0.4240 
     50 CA         27.6247   -0.0817  -11.3412 C.3       8 UNK         0.0235 
     51 CB         26.9732   -1.4743  -11.3933 C.3       8 UNK        -0.2000 
     52 C          29.1560   -0.1938  -11.2814 C.2       8 UNK         0.4941 
     53 O          29.8199    0.0661  -12.2856 O.2       8 UNK        -0.5273 
     54 N          29.6887   -0.5977  -10.1199 N.am      9 UNK        -0.4262 
     55 CA         31.1099   -0.9039   -9.9245 C.3       9 UNK         0.0264 
     56 CB         31.2405   -1.8811   -8.7489 C.3       9 UNK        -0.1955 
     57 C          32.0068    0.3238   -9.6846 C.2       9 UNK         0.5031 
     58 O          33.2287    0.1881   -9.7733 O.2       9 UNK        -0.5390 
     59 N          31.4135    1.4753   -9.3416 N.am      10 UNK        -0.4204 
     60 CA         32.0297    2.7467   -8.9385 C.3       10 UNK         0.0237 
     61 CB         33.0007    3.3021  -10.0004 C.3       10 UNK        -0.1985 
     62 C          32.6711    2.6880   -7.5416 C.2       10 UNK         0.4970 
     63 O          32.3349    3.5172   -6.6955 O.2       10 UNK        -0.4914 
     64 N          33.5674    1.7159   -7.3257 N.am      11 UNK        -0.4285 
     65 CA         34.2736    1.4367   -6.0604 C.3       11 UNK         0.1007 
     66 C          35.1865    2.5940   -5.5461 C.2       11 UNK         0.5703 
     67 N          35.6264    3.5119   -6.3993 N.am      11 UNK        -0.7361 
     68 O          35.5354    2.6472   -4.3687 O.2       11 UNK        -0.4986 
     69 C69        33.3268    0.8621   -4.9641 C.3       12 UNK        -0.0947 
     70 S70        32.6457   -0.7556   -5.4496 S.3       12 UNK        -0.2240 
     71 C71        31.4873   -1.0869   -4.0857 C.3       12 UNK         0.0194 
     72 H72        31.1617    0.2030    0.1501 H         1 UNK         0.0906 
     73 H73        29.6744    0.6181    1.0067 H         1 UNK         0.0906 
     74 H74        30.6198   -0.7861    1.5077 H         1 UNK         0.0906 
     75 H75        29.6734   -2.7139    0.8471 H         1 UNK         0.3140 
     76 H76        28.8237   -3.1438   -1.8753 H         1 UNK         0.1085 
     77 H77        28.5056   -5.0460    0.4978 H         1 UNK         0.0836 
     78 H78        28.4108   -5.4594   -1.1934 H         1 UNK         0.0836 
     79 H79        32.0507   -6.0606   -2.2138 H         1 UNK         0.0731 
     80 H80        30.4140   -6.6665   -2.2855 H         1 UNK         0.0731 
     81 H81        31.8421   -3.1541   -2.3275 H         1 UNK         0.1312 
     82 H82        29.9206   -2.1658   -6.0218 H         1 UNK         0.1406 
     83 H83        29.5764   -6.1284   -4.4382 H         1 UNK         0.1631 
     84 H84        29.3813   -5.5114   -7.0321 H         1 UNK         0.0717 
     85 H85        28.9672   -3.8592   -7.3886 H         1 UNK         0.0717 
     86 H86        25.6474   -3.6852   -5.0532 H         1 UNK         0.0934 
     87 H87        27.2264   -3.0072   -4.9006 H         1 UNK         0.0934 
     88 H88        26.0029   -2.9401   -7.6856 H         1 UNK         0.0739 
     89 H89        24.6570   -1.6426   -5.4619 H         1 UNK         0.3093 
     90 H90        22.7358    0.5524   -7.3897 H         1 UNK         0.0818 
     91 H91        20.7530   -0.6880   -6.5531 H         1 UNK         0.0819 
     92 H92        21.4850   -1.5498   -7.8953 H         1 UNK         0.0819 
     93 H93        21.7405   -2.1189   -6.2517 H         1 UNK         0.0819 
     94 H94        22.5207   -0.3532   -4.6728 H         1 UNK         0.3041 
     95 H95        24.9521    1.9194   -3.3417 H         1 UNK         0.0784 
     96 H96        22.7762    3.1368   -3.5991 H         1 UNK         0.0793 
     97 H97        21.9056    1.7020   -3.0750 H         1 UNK         0.0793 
     98 H98        22.9986    2.5320   -1.9673 H         1 UNK         0.0793 
     99 H99        23.4844    0.0811   -1.8880 H         1 UNK         0.3024 
    100 H100       24.8305   -1.5135   -0.7948 H         1 UNK         0.1171 
    101 H101       23.0652   -2.6722   -2.1715 H         1 UNK         0.0786 
    102 H102       24.3086   -3.4920   -3.1063 H         1 UNK         0.0786 
    103 H103       24.1070   -3.8515   -1.3948 H         1 UNK         0.0786 
    104 H104       26.9978   -2.1712   -2.5402 H         1 UNK         0.2977 
    105 H105       26.7931   -0.4787   -5.2048 H         1 UNK         0.3127 
    106 H106       29.3359    0.2801   -6.1594 H         1 UNK         0.0770 
    107 H107       27.2664    1.9244   -4.6038 H         1 UNK         0.0814 
    108 H108       28.9837    2.2892   -4.7302 H         1 UNK         0.0814 
    109 H109       28.4555    0.8369   -3.8922 H         1 UNK         0.0814 
    110 H110       26.0885    1.5383   -7.0579 H         1 UNK         0.2983 
    111 H111       26.9320    3.6118   -8.7675 H         1 UNK         0.0947 
    112 H112       24.6394    3.3752   -9.7608 H         1 UNK         0.0806 
    113 H113       24.5902    3.3444   -8.0063 H         1 UNK         0.0806 
    114 H114       24.4299    1.8446   -8.9200 H         1 UNK         0.0806 
    115 H115       26.8782    0.1332   -9.3669 H         1 UNK         0.3000 
    116 H116       27.3636    0.4395  -12.2651 H         1 UNK         0.0850 
    117 H117       27.3372   -2.0428  -12.2501 H         1 UNK         0.0810 
    118 H118       25.8899   -1.3992  -11.4898 H         1 UNK         0.0810 
    119 H119       27.1855   -2.0609  -10.4989 H         1 UNK         0.0810 
    120 H120       29.0632   -0.8171   -9.3456 H         1 UNK         0.3040 
    121 H121       31.4825   -1.4047  -10.8207 H         1 UNK         0.0766 
    122 H122       32.2774   -2.1854   -8.5988 H         1 UNK         0.0812 
    123 H123       30.6548   -2.7857   -8.9111 H         1 UNK         0.0812 
    124 H124       30.9011   -1.4161   -7.8255 H         1 UNK         0.0812 
    125 H125       30.4101    1.4517   -9.1800 H         1 UNK         0.3205 
    126 H126       31.2014    3.4536   -8.8684 H         1 UNK         0.0754 
    127 H127       33.3366    4.3036   -9.7289 H         1 UNK         0.0769 
    128 H128       32.5187    3.3753  -10.9753 H         1 UNK         0.0769 
    129 H129       33.8918    2.6845  -10.1133 H         1 UNK         0.0769 
    130 H130       33.7564    1.0812   -8.0956 H         1 UNK         0.2981 
    131 H131       34.9853    0.6479   -6.3059 H         1 UNK         0.0541 
    132 H132       36.2252    4.2502   -6.0646 H         1 UNK         0.3459 
    133 H133       35.3614    3.4755   -7.3702 H         1 UNK         0.3459 
    134 H134       32.5092    1.5524   -4.7511 H         1 UNK         0.0612 
    135 H135       33.8595    0.7123   -4.0237 H         1 UNK         0.0612 
    136 H136       30.6635   -0.3737   -4.1231 H         1 UNK         0.0624 
    137 H137       31.9963   -0.9261   -3.1341 H         1 UNK         0.0624 
@<TRIPOS>BOND
     1    1    2 1    
     2    1   72 1    
     3    1   73 1    
     4    1   74 1    
     5    2    3 2    
     6    2    4 am   BACKBONE|DICT|INTERRES
     7    4    5 1    
     8    4   75 1    
     9    5    6 1    
    10    5   35 1    
    11    5   76 1    
    12    6    7 1    
    13    6   77 1    
    14    6   78 1    
    15    7    8 1    
    16    8    9 1    
    17    8   79 1    
    18    8   80 1    
    19    9   10 ar   
    20    9   14 ar   
    21   10   11 ar   
    22   10   81 1    
    23   11   12 ar   
    24   11   71 1    
    25   12   13 ar   
    26   12   82 1    
    27   13   14 ar   
    28   13   15 1    
    29   14   83 1    
    30   15   16 1    
    31   15   84 1    
    32   15   85 1    
    33   16   17 1    
    34   17   18 1    
    35   17   86 1    
    36   17   87 1    
    37   18   19 1    
    38   18   37 1    
    39   18   88 1    
    40   19   20 am   BACKBONE|DICT|INTERRES
    41   19   89 1    
    42   20   21 2    
    43   20   22 1    
    44   22   23 1    
    45   22   24 1    
    46   22   90 1    
    47   23   91 1    
    48   23   92 1    
    49   23   93 1    
    50   24   25 am   BACKBONE|DICT|INTERRES
    51   24   94 1    
    52   25   26 2    
    53   25   27 1    
    54   27   28 1    
    55   27   29 1    
    56   27   95 1    
    57   28   96 1    
    58   28   97 1    
    59   28   98 1    
    60   29   30 am   BACKBONE|DICT|INTERRES
    61   29   99 1    
    62   30   31 2    
    63   30   32 1    
    64   32   33 1    
    65   32   34 1    
    66   32  100 1    
    67   33  101 1    
    68   33  102 1    
    69   33  103 1    
    70   34   35 am   BACKBONE|DICT|INTERRES
    71   34  104 1    
    72   35   36 2    
    73   37   38 2    
    74   37   39 am   BACKBONE|DICT|INTERRES
    75   39   40 1    
    76   39  105 1    
    77   40   41 1    
    78   40   42 1    
    79   40  106 1    
    80   41  107 1    
    81   41  108 1    
    82   41  109 1    
    83   42   43 2    
    84   42   44 am   BACKBONE|DICT|INTERRES
    85   44   45 1    
    86   44  110 1    
    87   45   46 1    
    88   45   47 1    
    89   45  111 1    
    90   46  112 1    
    91   46  113 1    
    92   46  114 1    
    93   47   48 2    
    94   47   49 am   BACKBONE|DICT|INTERRES
    95   49   50 1    
    96   49  115 1    
    97   50   51 1    
    98   50   52 1    
    99   50  116 1    
   100   51  117 1    
   101   51  118 1    
   102   51  119 1    
   103   52   53 2    
   104   52   54 am   BACKBONE|DICT|INTERRES
   105   54   55 1    
   106   54  120 1    
   107   55   56 1    
   108   55   57 1    
   109   55  121 1    
   110   56  122 1    
   111   56  123 1    
   112   56  124 1    
   113   57   58 2    
   114   57   59 am   BACKBONE|DICT|INTERRES
   115   59   60 1    
   116   59  125 1    
   117   60   61 1    
   118   60   62 1    
   119   60  126 1    
   120   61  127 1    
   121   61  128 1    
   122   61  129 1    
   123   62   63 2    
   124   62   64 am   BACKBONE|DICT|INTERRES
   125   64   65 1    
   126   64  130 1    
   127   65   66 1    
   128   65   69 1    
   129   65  131 1    
   130   66   67 am   BACKBONE|DICT|INTERRES
   131   66   68 2    
   132   67  132 1    
   133   67  133 1    
   134   69   70 1    
   135   69  134 1    
   136   69  135 1    
   137   70   71 1    
   138   71  136 1    
   139   71  137 1    
@<TRIPOS>SUBSTRUCTURE
     1 UNK         1 GROUP             0       ****    0 ROOT    
