@<TRIPOS>MOLECULE
3R137
137   139    1
SMALL
USER_CHARGES


@<TRIPOS>ATOM
      1 CA         23.3055   -3.8944   -1.8725 C.3       0 UNK        -0.2020 
      2 C          24.3558   -2.8427   -1.5512 C.2       0 UNK         0.4855 
      3 O          24.0155   -1.7819   -1.0259 O.2       0 UNK        -0.5197 
      4 N          25.6292   -3.1234   -1.8641 N.am      1 UNK        -0.4892 
      5 CA         26.7767   -2.2339   -1.6415 C.3       1 UNK         0.0835 
      6 C6         28.1118   -2.8655   -2.1043 C.3       12 UNK        -0.0855 
      7 S7         28.4651   -4.4616   -1.2999 S.3       12 UNK        -0.2931 
      8 C8         30.2871   -4.5184   -1.4146 C.3       12 UNK         0.0378 
      9 C9         30.8106   -4.4220   -2.8461 C.ar      12 UNK        -0.0802 
     10 C10        31.8594   -3.5476   -3.1506 C.ar      12 UNK        -0.0944 
     11 C11        32.3673   -3.4669   -4.4519 C.ar      12 UNK        -0.0787 
     12 C12        31.8045   -4.2568   -5.4589 C.ar      12 UNK        -0.0862 
     13 C13        30.7447   -5.1216   -5.1726 C.ar      12 UNK        -0.0733 
     14 C14        30.2684   -5.2165   -3.8617 C.ar      12 UNK        -0.0832 
     15 C15        30.1072   -5.9490   -6.2797 C.3       12 UNK         0.0240 
     16 S16        29.1339   -4.9259   -7.4325 S.3       12 UNK        -0.2522 
     17 C17        27.8505   -4.2194   -6.3403 C.3       12 UNK        -0.0967 
     18 CA         27.2995   -2.8680   -6.8579 C.3       5 UNK         0.0660 
     19 N          25.9925   -2.5634   -6.2681 N.am      5 UNK        -0.4015 
     20 C          25.2244   -1.5059   -6.5614 C.2       4 UNK         0.4946 
     21 O          25.5921   -0.5738   -7.2771 O.2       4 UNK        -0.5353 
     22 CA         23.8020   -1.4953   -5.9867 C.3       4 UNK         0.0277 
     23 CB         23.2694   -2.8923   -5.5979 C.3       4 UNK        -0.1981 
     24 N          23.7315   -0.5992   -4.8349 N.am      4 UNK        -0.4209 
     25 C          22.6380    0.0979   -4.4891 C.2       3 UNK         0.4942 
     26 O          21.6018    0.1002   -5.1563 O.2       3 UNK        -0.5208 
     27 CA         22.6600    0.9075   -3.1774 C.3       3 UNK         0.0250 
     28 CB         21.6074    0.3694   -2.1922 C.3       3 UNK        -0.1990 
     29 N          23.9692    0.9002   -2.5230 N.am      3 UNK        -0.4232 
     30 C          24.9344    1.8001   -2.7602 C.2       2 UNK         0.4993 
     31 O          24.7781    2.7882   -3.4762 O.2       2 UNK        -0.5286 
     32 CA         26.3115    1.5727   -2.1061 C.3       2 UNK         0.0209 
     33 CB         26.5384    2.5743   -0.9619 C.3       2 UNK        -0.1931 
     34 N          26.5362    0.2129   -1.6010 N.am      2 UNK        -0.4546 
     35 C          26.5670   -0.8896   -2.3598 C.2       1 UNK         0.5154 
     36 O          26.4121   -0.8821   -3.5834 O.2       1 UNK        -0.5181 
     37 C          28.3322   -1.7249   -6.7419 C.2       5 UNK         0.5014 
     38 O          29.0031   -1.4378   -7.7304 O.2       5 UNK        -0.5248 
     39 N          28.4019   -1.0442   -5.5892 N.am      6 UNK        -0.4434 
     40 CA         29.3233    0.0774   -5.3669 C.3       6 UNK         0.0363 
     41 CB         29.7881    0.1006   -3.9016 C.3       6 UNK        -0.1936 
     42 C          28.7562    1.4373   -5.8225 C.2       6 UNK         0.5081 
     43 O          29.4121    2.4578   -5.6110 O.2       6 UNK        -0.5248 
     44 N          27.5744    1.4483   -6.4525 N.am      7 UNK        -0.4718 
     45 CA         27.1029    2.5634   -7.2760 C.3       7 UNK         0.0273 
     46 CB         25.6108    2.8231   -7.0126 C.3       7 UNK        -0.1935 
     47 C          27.3506    2.2629   -8.7634 C.2       7 UNK         0.5018 
     48 O          27.7073    3.1750   -9.5098 O.2       7 UNK        -0.5186 
     49 N          27.1494    0.9997   -9.1681 N.am      8 UNK        -0.4240 
     50 CA         27.3326    0.5159  -10.5364 C.3       8 UNK         0.0235 
     51 CB         26.6487   -0.8537  -10.6855 C.3       8 UNK        -0.2000 
     52 C          28.8078    0.4383  -10.9677 C.2       8 UNK         0.4941 
     53 O          29.1428    0.9212  -12.0510 O.2       8 UNK        -0.5273 
     54 N          29.6528   -0.1905  -10.1406 N.am      9 UNK        -0.4262 
     55 CA         31.0803   -0.3858  -10.3979 C.3       9 UNK         0.0264 
     56 CB         31.5630   -1.6244   -9.6220 C.3       9 UNK        -0.1955 
     57 C          31.9046    0.8482  -10.0016 C.2       9 UNK         0.5031 
     58 O          31.4318    1.7048   -9.2503 O.2       9 UNK        -0.5390 
     59 N          33.1578    0.8838  -10.4767 N.am      10 UNK        -0.4204 
     60 CA         34.1391    1.9483  -10.2280 C.3       10 UNK         0.0237 
     61 CB         35.4064    1.6669  -11.0523 C.3       10 UNK        -0.1985 
     62 C          34.5005    2.1660   -8.7452 C.2       10 UNK         0.4970 
     63 O          34.9520    3.2581   -8.3977 O.2       10 UNK        -0.4914 
     64 N          34.2868    1.1469   -7.9022 N.am      11 UNK        -0.4285 
     65 CA         34.3750    1.2442   -6.4382 C.3       11 UNK         0.1007 
     66 C          33.2230    2.0552   -5.7702 C.2       11 UNK         0.5703 
     67 N          32.1559    2.3985   -6.4810 N.am      11 UNK        -0.7361 
     68 O          33.3026    2.3703   -4.5852 O.2       11 UNK        -0.4986 
     69 C69        34.5561   -0.1545   -5.7904 C.3       12 UNK        -0.0947 
     70 S70        33.0969   -1.2427   -5.9470 S.3       12 UNK        -0.2240 
     71 C71        33.5413   -2.5481   -4.7616 C.3       12 UNK         0.0194 
     72 H72        22.5220   -3.4630   -2.4951 H         1 UNK         0.0906 
     73 H73        23.7294   -4.7478   -2.4013 H         1 UNK         0.0906 
     74 H74        22.8471   -4.2572   -0.9530 H         1 UNK         0.0906 
     75 H75        25.8570   -4.0198   -2.2696 H         1 UNK         0.3140 
     76 H76        26.8397   -2.0515   -0.5666 H         1 UNK         0.1085 
     77 H77        28.1163   -3.0235   -3.1840 H         1 UNK         0.0836 
     78 H78        28.9391   -2.1852   -1.8924 H         1 UNK         0.0836 
     79 H79        30.6985   -3.7176   -0.7981 H         1 UNK         0.0731 
     80 H80        30.6373   -5.4540   -0.9767 H         1 UNK         0.0731 
     81 H81        32.2920   -2.9378   -2.3691 H         1 UNK         0.1312 
     82 H82        32.1823   -4.1872   -6.4701 H         1 UNK         0.1406 
     83 H83        29.4583   -5.8955   -3.6323 H         1 UNK         0.1631 
     84 H84        29.4646   -6.7273   -5.8650 H         1 UNK         0.0717 
     85 H85        30.8892   -6.4641   -6.8393 H         1 UNK         0.0717 
     86 H86        27.0489   -4.9576   -6.2832 H         1 UNK         0.0934 
     87 H87        28.2260   -4.1080   -5.3240 H         1 UNK         0.0934 
     88 H88        27.1009   -2.9887   -7.9250 H         1 UNK         0.0739 
     89 H89        25.6075   -3.2638   -5.6533 H         1 UNK         0.3093 
     90 H90        23.1679   -1.1051   -6.7860 H         1 UNK         0.0818 
     91 H91        22.2158   -2.8442   -5.3219 H         1 UNK         0.0819 
     92 H92        23.3450   -3.5912   -6.4323 H         1 UNK         0.0819 
     93 H93        23.8086   -3.3178   -4.7519 H         1 UNK         0.0819 
     94 H94        24.5791   -0.5231   -4.2797 H         1 UNK         0.3041 
     95 H95        22.3843    1.9339   -3.4287 H         1 UNK         0.0784 
     96 H96        20.6034    0.4493   -2.6110 H         1 UNK         0.0793 
     97 H97        21.7750   -0.6810   -1.9532 H         1 UNK         0.0793 
     98 H98        21.6124    0.9316   -1.2582 H         1 UNK         0.0793 
     99 H99        24.1640    0.1104   -1.9150 H         1 UNK         0.3024 
    100 H100       27.0543    1.7676   -2.8829 H         1 UNK         0.1171 
    101 H101       26.4121    3.6008   -1.3094 H         1 UNK         0.0786 
    102 H102       27.5479    2.4948   -0.5581 H         1 UNK         0.0786 
    103 H103       25.8338    2.4185   -0.1440 H         1 UNK         0.0786 
    104 H104       26.6400    0.1197   -0.6003 H         1 UNK         0.2977 
    105 H105       27.7160   -1.2215   -4.8589 H         1 UNK         0.3127 
    106 H106       30.2192   -0.0863   -5.9703 H         1 UNK         0.0770 
    107 H107       28.9819    0.3586   -3.2194 H         1 UNK         0.0814 
    108 H108       30.5779    0.8399   -3.7609 H         1 UNK         0.0814 
    109 H109       30.1992   -0.8639   -3.6034 H         1 UNK         0.0814 
    110 H110       27.0661    0.5764   -6.5526 H         1 UNK         0.2983 
    111 H111       27.6475    3.4781   -7.0310 H         1 UNK         0.0947 
    112 H112       25.2444    3.6431   -7.6315 H         1 UNK         0.0806 
    113 H113       25.4404    3.1036   -5.9747 H         1 UNK         0.0806 
    114 H114       24.9932    1.9518   -7.2295 H         1 UNK         0.0806 
    115 H115       26.7797    0.3332   -8.4969 H         1 UNK         0.3000 
    116 H116       26.8299    1.2165  -11.2067 H         1 UNK         0.0850 
    117 H117       26.7429   -1.2283  -11.7056 H         1 UNK         0.0810 
    118 H118       25.5841   -0.7918  -10.4589 H         1 UNK         0.0810 
    119 H119       27.0879   -1.5991  -10.0215 H         1 UNK         0.0810 
    120 H120       29.3109   -0.5469   -9.2481 H         1 UNK         0.3040 
    121 H121       31.2225   -0.5690  -11.4652 H         1 UNK         0.0766 
    122 H122       32.5950   -1.8747   -9.8692 H         1 UNK         0.0812 
    123 H123       30.9550   -2.4997   -9.8524 H         1 UNK         0.0812 
    124 H124       31.5165   -1.4662   -8.5439 H         1 UNK         0.0812 
    125 H125       33.4636    0.1297  -11.0755 H         1 UNK         0.3205 
    126 H126       33.6994    2.8815  -10.5862 H         1 UNK         0.0754 
    127 H127       36.1459    2.4575  -10.9154 H         1 UNK         0.0769 
    128 H128       35.1850    1.6172  -12.1187 H         1 UNK         0.0769 
    129 H129       35.8773    0.7271  -10.7610 H         1 UNK         0.0769 
    130 H130       33.9027    0.2875   -8.2634 H         1 UNK         0.2981 
    131 H131       35.2851    1.8052   -6.2176 H         1 UNK         0.0541 
    132 H132       32.0631    2.1316   -7.4559 H         1 UNK         0.3459 
    133 H133       31.3691    2.8366   -6.0191 H         1 UNK         0.3459 
    134 H134       34.7946   -0.0391   -4.7316 H         1 UNK         0.0612 
    135 H135       35.4137   -0.6627   -6.2338 H         1 UNK         0.0612 
    136 H136       33.9125   -2.0873   -3.8450 H         1 UNK         0.0624 
    137 H137       34.3643   -3.1364   -5.1693 H         1 UNK         0.0624 
@<TRIPOS>BOND
     1    1    2 1    
     2    1   72 1    
     3    1   73 1    
     4    1   74 1    
     5    2    3 2    
     6    2    4 am   BACKBONE|DICT|INTERRES
     7    4    5 1    
     8    4   75 1    
     9    5    6 1    
    10    5   35 1    
    11    5   76 1    
    12    6    7 1    
    13    6   77 1    
    14    6   78 1    
    15    7    8 1    
    16    8    9 1    
    17    8   79 1    
    18    8   80 1    
    19    9   10 ar   
    20    9   14 ar   
    21   10   11 ar   
    22   10   81 1    
    23   11   12 ar   
    24   11   71 1    
    25   12   13 ar   
    26   12   82 1    
    27   13   14 ar   
    28   13   15 1    
    29   14   83 1    
    30   15   16 1    
    31   15   84 1    
    32   15   85 1    
    33   16   17 1    
    34   17   18 1    
    35   17   86 1    
    36   17   87 1    
    37   18   19 1    
    38   18   37 1    
    39   18   88 1    
    40   19   20 am   BACKBONE|DICT|INTERRES
    41   19   89 1    
    42   20   21 2    
    43   20   22 1    
    44   22   23 1    
    45   22   24 1    
    46   22   90 1    
    47   23   91 1    
    48   23   92 1    
    49   23   93 1    
    50   24   25 am   BACKBONE|DICT|INTERRES
    51   24   94 1    
    52   25   26 2    
    53   25   27 1    
    54   27   28 1    
    55   27   29 1    
    56   27   95 1    
    57   28   96 1    
    58   28   97 1    
    59   28   98 1    
    60   29   30 am   BACKBONE|DICT|INTERRES
    61   29   99 1    
    62   30   31 2    
    63   30   32 1    
    64   32   33 1    
    65   32   34 1    
    66   32  100 1    
    67   33  101 1    
    68   33  102 1    
    69   33  103 1    
    70   34   35 am   BACKBONE|DICT|INTERRES
    71   34  104 1    
    72   35   36 2    
    73   37   38 2    
    74   37   39 am   BACKBONE|DICT|INTERRES
    75   39   40 1    
    76   39  105 1    
    77   40   41 1    
    78   40   42 1    
    79   40  106 1    
    80   41  107 1    
    81   41  108 1    
    82   41  109 1    
    83   42   43 2    
    84   42   44 am   BACKBONE|DICT|INTERRES
    85   44   45 1    
    86   44  110 1    
    87   45   46 1    
    88   45   47 1    
    89   45  111 1    
    90   46  112 1    
    91   46  113 1    
    92   46  114 1    
    93   47   48 2    
    94   47   49 am   BACKBONE|DICT|INTERRES
    95   49   50 1    
    96   49  115 1    
    97   50   51 1    
    98   50   52 1    
    99   50  116 1    
   100   51  117 1    
   101   51  118 1    
   102   51  119 1    
   103   52   53 2    
   104   52   54 am   BACKBONE|DICT|INTERRES
   105   54   55 1    
   106   54  120 1    
   107   55   56 1    
   108   55   57 1    
   109   55  121 1    
   110   56  122 1    
   111   56  123 1    
   112   56  124 1    
   113   57   58 2    
   114   57   59 am   BACKBONE|DICT|INTERRES
   115   59   60 1    
   116   59  125 1    
   117   60   61 1    
   118   60   62 1    
   119   60  126 1    
   120   61  127 1    
   121   61  128 1    
   122   61  129 1    
   123   62   63 2    
   124   62   64 am   BACKBONE|DICT|INTERRES
   125   64   65 1    
   126   64  130 1    
   127   65   66 1    
   128   65   69 1    
   129   65  131 1    
   130   66   67 am   BACKBONE|DICT|INTERRES
   131   66   68 2    
   132   67  132 1    
   133   67  133 1    
   134   69   70 1    
   135   69  134 1    
   136   69  135 1    
   137   70   71 1    
   138   71  136 1    
   139   71  137 1    
@<TRIPOS>SUBSTRUCTURE
     1 UNK         1 GROUP             0       ****    0 ROOT    
