@<TRIPOS>MOLECULE
3R137
137   139    1
SMALL
USER_CHARGES


@<TRIPOS>ATOM
      1 CA         25.6956   -5.4859   -3.3108 C.3       0 UNK        -0.2020 
      2 C          25.5805   -4.1608   -2.5728 C.2       0 UNK         0.4855 
      3 O          24.4711   -3.7285   -2.2596 O.2       0 UNK        -0.5197 
      4 N          26.7188   -3.5132   -2.2916 N.am      1 UNK        -0.4892 
      5 CA         26.8107   -2.2172   -1.6083 C.3       1 UNK         0.0835 
      6 C6         28.2803   -1.7978   -1.3690 C.3       12 UNK        -0.0855 
      7 S7         29.2142   -2.9985   -0.3607 S.3       12 UNK        -0.2931 
      8 C8         30.9401   -2.4810   -0.6733 C.3       12 UNK         0.0378 
      9 C9         31.2946   -2.4855   -2.1560 C.ar      12 UNK        -0.0802 
     10 C10        31.7810   -1.3268   -2.7712 C.ar      12 UNK        -0.0944 
     11 C11        32.0360   -1.3072   -4.1458 C.ar      12 UNK        -0.0787 
     12 C12        31.8137   -2.4610   -4.9023 C.ar      12 UNK        -0.0862 
     13 C13        31.3269   -3.6237   -4.2996 C.ar      12 UNK        -0.0733 
     14 C14        31.0903   -3.6358   -2.9232 C.ar      12 UNK        -0.0832 
     15 C15        31.0113   -4.8577   -5.1331 C.3       12 UNK         0.0240 
     16 S16        29.8369   -4.5251   -6.4896 S.3       12 UNK        -0.2522 
     17 C17        28.4386   -3.6878   -5.6645 C.3       12 UNK        -0.0967 
     18 CA         27.9151   -2.4863   -6.4959 C.3       5 UNK         0.0660 
     19 N          26.4593   -2.3422   -6.3783 N.am      5 UNK        -0.4015 
     20 C          25.7080   -1.5107   -7.1114 C.2       4 UNK         0.4946 
     21 O          26.1689   -0.6377   -7.8472 O.2       4 UNK        -0.5353 
     22 CA         24.1916   -1.6991   -7.0236 C.3       4 UNK         0.0277 
     23 CB         23.7804   -3.1046   -7.5134 C.3       4 UNK        -0.1981 
     24 N          23.6860   -1.4390   -5.6734 N.am      4 UNK        -0.4209 
     25 C          22.3921   -1.2005   -5.4017 C.2       3 UNK         0.4942 
     26 O          21.5141   -1.1516   -6.2647 O.2       3 UNK        -0.5208 
     27 CA         21.9791   -0.9927   -3.9331 C.3       3 UNK         0.0250 
     28 CB         21.3967   -2.2912   -3.3518 C.3       3 UNK        -0.1990 
     29 N          23.0740   -0.5290   -3.0825 N.am      3 UNK        -0.4232 
     30 C          23.5633    0.7188   -3.0974 C.2       2 UNK         0.4993 
     31 O          23.0805    1.6271   -3.7730 O.2       2 UNK        -0.5286 
     32 CA         24.7959    1.0196   -2.2224 C.3       2 UNK         0.0209 
     33 CB         24.4222    1.9629   -1.0666 C.3       2 UNK        -0.1931 
     34 N          25.4739   -0.1606   -1.6702 N.am      2 UNK        -0.4546 
     35 C          26.0836   -1.1074   -2.3941 C.2       1 UNK         0.5154 
     36 O          26.1069   -1.1087   -3.6293 O.2       1 UNK        -0.5181 
     37 C          28.7004   -1.1812   -6.2329 C.2       5 UNK         0.5014 
     38 O          29.6508   -0.8957   -6.9639 O.2       5 UNK        -0.5248 
     39 N          28.2605   -0.3853   -5.2482 N.am      6 UNK        -0.4434 
     40 CA         28.8092    0.9428   -4.9510 C.3       6 UNK         0.0363 
     41 CB         28.9006    1.1452   -3.4298 C.3       6 UNK        -0.1936 
     42 C          28.0133    2.0872   -5.6011 C.2       6 UNK         0.5081 
     43 O          28.4406    3.2364   -5.4944 O.2       6 UNK        -0.5248 
     44 N          26.8865    1.7835   -6.2592 N.am      7 UNK        -0.4718 
     45 CA         26.1129    2.7593   -7.0323 C.3       7 UNK         0.0273 
     46 CB         24.6380    2.3306   -7.0919 C.3       7 UNK        -0.1935 
     47 C          26.6855    2.9346   -8.4482 C.2       7 UNK         0.5018 
     48 O          26.6284    4.0415   -8.9843 O.2       7 UNK        -0.5186 
     49 N          27.2163    1.8426   -9.0194 N.am      8 UNK        -0.4240 
     50 CA         27.8314    1.7747  -10.3470 C.3       8 UNK         0.0235 
     51 CB         28.2116    0.3214  -10.6845 C.3       8 UNK        -0.2000 
     52 C          28.9811    2.7794  -10.6030 C.2       8 UNK         0.4941 
     53 O          28.8845    3.5202  -11.5804 O.2       8 UNK        -0.5273 
     54 N          30.0365    2.8773   -9.7783 N.am      9 UNK        -0.4262 
     55 CA         30.4891    1.9498   -8.7419 C.3       9 UNK         0.0264 
     56 CB         31.1673    2.7545   -7.6214 C.3       9 UNK        -0.1955 
     57 C          31.4950    0.9744   -9.3685 C.2       9 UNK         0.5031 
     58 O          32.3571    1.4046  -10.1389 O.2       9 UNK        -0.5390 
     59 N          31.3819   -0.3128   -9.0260 N.am      10 UNK        -0.4204 
     60 CA         32.1857   -1.3900   -9.6102 C.3       10 UNK         0.0237 
     61 CB         31.4815   -2.7317   -9.3646 C.3       10 UNK        -0.1985 
     62 C          33.6273   -1.4359   -9.0788 C.2       10 UNK         0.4970 
     63 O          34.5137   -1.9062   -9.7925 O.2       10 UNK        -0.4914 
     64 N          33.8342   -0.9565   -7.8461 N.am      11 UNK        -0.4285 
     65 CA         35.1428   -0.8858   -7.1804 C.3       11 UNK         0.1007 
     66 C          36.0101    0.3454   -7.5805 C.2       11 UNK         0.5703 
     67 N          35.5304    1.2566   -8.4206 N.am      11 UNK        -0.7361 
     68 O          37.1492    0.4652   -7.1354 O.2       11 UNK        -0.4986 
     69 C69        35.0126   -1.0873   -5.6451 C.3       12 UNK        -0.0947 
     70 S70        34.2592    0.2994   -4.7218 S.3       12 UNK        -0.2240 
     71 C71        32.4710   -0.0198   -4.8300 C.3       12 UNK         0.0194 
     72 H72        25.1884   -5.4252   -4.2732 H         1 UNK         0.0906 
     73 H73        26.7335   -5.7672   -3.4882 H         1 UNK         0.0906 
     74 H74        25.2261   -6.2787   -2.7291 H         1 UNK         0.0906 
     75 H75        27.6045   -3.9300   -2.5361 H         1 UNK         0.3140 
     76 H76        26.3169   -2.3286   -0.6405 H         1 UNK         0.1085 
     77 H77        28.7794   -1.6789   -2.3313 H         1 UNK         0.0836 
     78 H78        28.3355   -0.8288   -0.8684 H         1 UNK         0.0836 
     79 H79        31.0917   -1.4905   -0.2412 H         1 UNK         0.0731 
     80 H80        31.6148   -3.1556   -0.1448 H         1 UNK         0.0731 
     81 H81        31.9326   -0.4283   -2.1887 H         1 UNK         0.1312 
     82 H82        31.9802   -2.4457   -5.9700 H         1 UNK         0.1406 
     83 H83        30.7060   -4.5288   -2.4489 H         1 UNK         0.1631 
     84 H84        30.6009   -5.6538   -4.5100 H         1 UNK         0.0717 
     85 H85        31.9383   -5.2457   -5.5570 H         1 UNK         0.0717 
     86 H86        27.6613   -4.4455   -5.5579 H         1 UNK         0.0934 
     87 H87        28.6923   -3.3851   -4.6480 H         1 UNK         0.0934 
     88 H88        28.0778   -2.7169   -7.5515 H         1 UNK         0.0739 
     89 H89        25.9934   -2.9966   -5.7692 H         1 UNK         0.3093 
     90 H90        23.7487   -0.9653   -7.7007 H         1 UNK         0.0818 
     91 H91        22.7020   -3.1781   -7.6536 H         1 UNK         0.0819 
     92 H92        24.2404   -3.3355   -8.4755 H         1 UNK         0.0819 
     93 H93        24.0751   -3.8857   -6.8122 H         1 UNK         0.0819 
     94 H94        24.3673   -1.4026   -4.9224 H         1 UNK         0.3041 
     95 H95        21.1919   -0.2355   -3.9190 H         1 UNK         0.0784 
     96 H96        20.5325   -2.6224   -3.9293 H         1 UNK         0.0793 
     97 H97        22.1248   -3.1027   -3.3651 H         1 UNK         0.0793 
     98 H98        21.0641   -2.1537   -2.3228 H         1 UNK         0.0793 
     99 H99        23.5282   -1.2227   -2.5041 H         1 UNK         0.3024 
    100 H100       25.5069    1.5387   -2.8691 H         1 UNK         0.1171 
    101 H101       23.9494    2.8727   -1.4395 H         1 UNK         0.0786 
    102 H102       25.3032    2.2691   -0.5022 H         1 UNK         0.0786 
    103 H103       23.7230    1.4936   -0.3734 H         1 UNK         0.0786 
    104 H104       25.4930   -0.2301   -0.6623 H         1 UNK         0.2977 
    105 H105       27.4514   -0.6817   -4.7021 H         1 UNK         0.3127 
    106 H106       29.8203    1.0147   -5.3509 H         1 UNK         0.0770 
    107 H107       27.9234    1.1003   -2.9526 H         1 UNK         0.0814 
    108 H108       29.3313    2.1184   -3.1902 H         1 UNK         0.0814 
    109 H109       29.5430    0.3977   -2.9701 H         1 UNK         0.0814 
    110 H110       26.6267    0.8112   -6.3648 H         1 UNK         0.2983 
    111 H111       26.1567    3.7297   -6.5320 H         1 UNK         0.0947 
    112 H112       24.0339    3.0944   -7.5831 H         1 UNK         0.0806 
    113 H113       24.2260    2.1857   -6.0943 H         1 UNK         0.0806 
    114 H114       24.5009    1.4052   -7.6499 H         1 UNK         0.0806 
    115 H115       27.1141    0.9615   -8.5248 H         1 UNK         0.3000 
    116 H116       27.0420    2.0538  -11.0482 H         1 UNK         0.0850 
    117 H117       28.8291    0.2681  -11.5823 H         1 UNK         0.0810 
    118 H118       27.3196   -0.2768  -10.8715 H         1 UNK         0.0810 
    119 H119       28.7556   -0.1648   -9.8767 H         1 UNK         0.0810 
    120 H120       30.7342    3.5607  -10.0338 H         1 UNK         0.3040 
    121 H121       29.6538    1.3998   -8.3129 H         1 UNK         0.0766 
    122 H122       31.4777    2.1061   -6.8030 H         1 UNK         0.0812 
    123 H123       30.4911    3.5009   -7.2053 H         1 UNK         0.0812 
    124 H124       32.0570    3.2769   -7.9763 H         1 UNK         0.0812 
    125 H125       30.6841   -0.5825   -8.3280 H         1 UNK         0.3205 
    126 H126       32.2388   -1.2296  -10.6894 H         1 UNK         0.0754 
    127 H127       32.0212   -3.5519   -9.8399 H         1 UNK         0.0769 
    128 H128       30.4683   -2.7315   -9.7672 H         1 UNK         0.0769 
    129 H129       31.4192   -2.9553   -8.3008 H         1 UNK         0.0769 
    130 H130       33.0566   -0.5602   -7.3438 H         1 UNK         0.2981 
    131 H131       35.7200   -1.7423   -7.5338 H         1 UNK         0.0541 
    132 H132       34.6092    1.1599   -8.8191 H         1 UNK         0.3459 
    133 H133       36.1083    2.0421   -8.6740 H         1 UNK         0.3459 
    134 H134       36.0047   -1.2470   -5.2195 H         1 UNK         0.0612 
    135 H135       34.4692   -2.0074   -5.4326 H         1 UNK         0.0612 
    136 H136       32.1570   -0.0206   -5.8729 H         1 UNK         0.0624 
    137 H137       31.9563    0.8220   -4.3654 H         1 UNK         0.0624 
@<TRIPOS>BOND
     1    1    2 1    
     2    1   72 1    
     3    1   73 1    
     4    1   74 1    
     5    2    3 2    
     6    2    4 am   BACKBONE|DICT|INTERRES
     7    4    5 1    
     8    4   75 1    
     9    5    6 1    
    10    5   35 1    
    11    5   76 1    
    12    6    7 1    
    13    6   77 1    
    14    6   78 1    
    15    7    8 1    
    16    8    9 1    
    17    8   79 1    
    18    8   80 1    
    19    9   10 ar   
    20    9   14 ar   
    21   10   11 ar   
    22   10   81 1    
    23   11   12 ar   
    24   11   71 1    
    25   12   13 ar   
    26   12   82 1    
    27   13   14 ar   
    28   13   15 1    
    29   14   83 1    
    30   15   16 1    
    31   15   84 1    
    32   15   85 1    
    33   16   17 1    
    34   17   18 1    
    35   17   86 1    
    36   17   87 1    
    37   18   19 1    
    38   18   37 1    
    39   18   88 1    
    40   19   20 am   BACKBONE|DICT|INTERRES
    41   19   89 1    
    42   20   21 2    
    43   20   22 1    
    44   22   23 1    
    45   22   24 1    
    46   22   90 1    
    47   23   91 1    
    48   23   92 1    
    49   23   93 1    
    50   24   25 am   BACKBONE|DICT|INTERRES
    51   24   94 1    
    52   25   26 2    
    53   25   27 1    
    54   27   28 1    
    55   27   29 1    
    56   27   95 1    
    57   28   96 1    
    58   28   97 1    
    59   28   98 1    
    60   29   30 am   BACKBONE|DICT|INTERRES
    61   29   99 1    
    62   30   31 2    
    63   30   32 1    
    64   32   33 1    
    65   32   34 1    
    66   32  100 1    
    67   33  101 1    
    68   33  102 1    
    69   33  103 1    
    70   34   35 am   BACKBONE|DICT|INTERRES
    71   34  104 1    
    72   35   36 2    
    73   37   38 2    
    74   37   39 am   BACKBONE|DICT|INTERRES
    75   39   40 1    
    76   39  105 1    
    77   40   41 1    
    78   40   42 1    
    79   40  106 1    
    80   41  107 1    
    81   41  108 1    
    82   41  109 1    
    83   42   43 2    
    84   42   44 am   BACKBONE|DICT|INTERRES
    85   44   45 1    
    86   44  110 1    
    87   45   46 1    
    88   45   47 1    
    89   45  111 1    
    90   46  112 1    
    91   46  113 1    
    92   46  114 1    
    93   47   48 2    
    94   47   49 am   BACKBONE|DICT|INTERRES
    95   49   50 1    
    96   49  115 1    
    97   50   51 1    
    98   50   52 1    
    99   50  116 1    
   100   51  117 1    
   101   51  118 1    
   102   51  119 1    
   103   52   53 2    
   104   52   54 am   BACKBONE|DICT|INTERRES
   105   54   55 1    
   106   54  120 1    
   107   55   56 1    
   108   55   57 1    
   109   55  121 1    
   110   56  122 1    
   111   56  123 1    
   112   56  124 1    
   113   57   58 2    
   114   57   59 am   BACKBONE|DICT|INTERRES
   115   59   60 1    
   116   59  125 1    
   117   60   61 1    
   118   60   62 1    
   119   60  126 1    
   120   61  127 1    
   121   61  128 1    
   122   61  129 1    
   123   62   63 2    
   124   62   64 am   BACKBONE|DICT|INTERRES
   125   64   65 1    
   126   64  130 1    
   127   65   66 1    
   128   65   69 1    
   129   65  131 1    
   130   66   67 am   BACKBONE|DICT|INTERRES
   131   66   68 2    
   132   67  132 1    
   133   67  133 1    
   134   69   70 1    
   135   69  134 1    
   136   69  135 1    
   137   70   71 1    
   138   71  136 1    
   139   71  137 1    
@<TRIPOS>SUBSTRUCTURE
     1 UNK         1 GROUP             0       ****    0 ROOT    
