@<TRIPOS>MOLECULE
3R137
137   139    1
SMALL
USER_CHARGES


@<TRIPOS>ATOM
      1 CA         23.9978   -4.3160   -0.6856 C.3       0 UNK        -0.2020 
      2 C          24.8495   -3.3871   -1.5373 C.2       0 UNK         0.4855 
      3 O          25.1240   -3.7119   -2.6925 O.2       0 UNK        -0.5197 
      4 N          25.2370   -2.2290   -0.9756 N.am      1 UNK        -0.4892 
      5 CA         26.1211   -1.1801   -1.5257 C.3       1 UNK         0.0835 
      6 C6         27.6312   -1.3943   -1.2097 C.3       12 UNK        -0.0855 
      7 S7         28.3344   -2.9884   -1.7533 S.3       12 UNK        -0.2931 
      8 C8         29.9063   -3.0143   -0.8345 C.3       12 UNK         0.0378 
      9 C9         31.0684   -2.5470   -1.6982 C.ar      12 UNK        -0.0802 
     10 C10        31.7771   -3.4795   -2.4609 C.ar      12 UNK        -0.0944 
     11 C11        32.8585   -3.0823   -3.2515 C.ar      12 UNK        -0.0787 
     12 C12        33.2361   -1.7356   -3.2682 C.ar      12 UNK        -0.0862 
     13 C13        32.5401   -0.7908   -2.5034 C.ar      12 UNK        -0.0733 
     14 C14        31.4513   -1.2011   -1.7248 C.ar      12 UNK        -0.0832 
     15 C15        33.0165    0.6560   -2.4699 C.3       12 UNK         0.0240 
     16 S16        32.6434    1.5557   -4.0088 S.3       12 UNK        -0.2522 
     17 C17        31.0276    2.3309   -3.6512 C.3       12 UNK        -0.0967 
     18 CA         30.0206    2.1225   -4.8088 C.3       5 UNK         0.0660 
     19 N          29.7620    0.6985   -5.0122 N.am      5 UNK        -0.4015 
     20 C          28.9444    0.1266   -5.8998 C.2       4 UNK         0.4946 
     21 O          28.1105    0.7427   -6.5672 O.2       4 UNK        -0.5353 
     22 CA         29.0923   -1.3898   -6.0752 C.3       4 UNK         0.0277 
     23 CB         30.0588   -2.0534   -5.0773 C.3       4 UNK        -0.1981 
     24 N          27.7838   -2.0010   -5.9479 N.am      4 UNK        -0.4209 
     25 C          27.3751   -3.1062   -6.5806 C.2       3 UNK         0.4942 
     26 O          28.1016   -3.7734   -7.3211 O.2       3 UNK        -0.5208 
     27 CA         25.9188   -3.5611   -6.3474 C.3       3 UNK         0.0250 
     28 CB         25.8817   -4.9742   -5.7415 C.3       3 UNK        -0.1990 
     29 N          25.1519   -2.6541   -5.4860 N.am      3 UNK        -0.4232 
     30 C          24.7133   -1.4401   -5.8534 C.2       2 UNK         0.4993 
     31 O          24.8334   -0.9877   -6.9911 O.2       2 UNK        -0.5286 
     32 CA         24.0950   -0.5495   -4.7616 C.3       2 UNK         0.0209 
     33 CB         22.5612   -0.6313   -4.7988 C.3       2 UNK        -0.1931 
     34 N          24.5652   -0.8609   -3.4088 N.am      2 UNK        -0.4546 
     35 C          25.8328   -0.7505   -2.9835 C.2       1 UNK         0.5154 
     36 O          26.7356   -0.2938   -3.6877 O.2       1 UNK        -0.5181 
     37 C          28.7869    3.0354   -4.6294 C.2       5 UNK         0.5014 
     38 O          28.9101    4.2276   -4.9166 O.2       5 UNK        -0.5248 
     39 N          27.6428    2.5141   -4.1575 N.am      6 UNK        -0.4434 
     40 CA         26.4567    3.3343   -3.8857 C.3       6 UNK         0.0363 
     41 CB         25.6440    2.7351   -2.7267 C.3       6 UNK        -0.1936 
     42 C          25.5569    3.5685   -5.1128 C.2       6 UNK         0.5081 
     43 O          24.7191    4.4691   -5.0419 O.2       6 UNK        -0.5248 
     44 N          25.7054    2.7913   -6.1987 N.am      7 UNK        -0.4718 
     45 CA         24.8998    2.9770   -7.4145 C.3       7 UNK         0.0273 
     46 CB         23.5098    2.3252   -7.2817 C.3       7 UNK        -0.1935 
     47 C          25.6222    2.5127   -8.6827 C.2       7 UNK         0.5018 
     48 O          25.7538    3.3073   -9.6145 O.2       7 UNK        -0.5186 
     49 N          26.0792    1.2523   -8.7113 N.am      8 UNK        -0.4240 
     50 CA         26.8114    0.6672   -9.8436 C.3       8 UNK         0.0235 
     51 CB         26.9633   -0.8458   -9.6262 C.3       8 UNK        -0.2000 
     52 C          28.1900    1.3067  -10.0971 C.2       8 UNK         0.4941 
     53 O          28.6833    1.2465  -11.2249 O.2       8 UNK        -0.5273 
     54 N          28.7886    1.8891   -9.0484 N.am      9 UNK        -0.4262 
     55 CA         30.0970    2.5490   -8.9700 C.3       9 UNK         0.0264 
     56 CB         30.2336    3.7081   -9.9770 C.3       9 UNK        -0.1955 
     57 C          31.2624    1.5546   -9.0691 C.2       9 UNK         0.5031 
     58 O          32.0903    1.5035   -8.1593 O.2       9 UNK        -0.5390 
     59 N          31.2855    0.7582  -10.1431 N.am      10 UNK        -0.4204 
     60 CA         32.1506   -0.4087  -10.2881 C.3       10 UNK         0.0237 
     61 CB         32.2487   -0.7895  -11.7741 C.3       10 UNK        -0.1985 
     62 C          31.5712   -1.5668   -9.4636 C.2       10 UNK         0.4970 
     63 O          30.3698   -1.8247   -9.5533 O.2       10 UNK        -0.4914 
     64 N          32.4276   -2.2308   -8.6809 N.am      11 UNK        -0.4285 
     65 CA         32.0701   -3.3739   -7.8337 C.3       11 UNK         0.1007 
     66 C          31.7041   -4.6224   -8.6821 C.2       11 UNK         0.5703 
     67 N          30.4628   -5.0873   -8.6194 N.am      11 UNK        -0.7361 
     68 O          32.5475   -5.1765   -9.3848 O.2       11 UNK        -0.4986 
     69 C69        33.1949   -3.6428   -6.7988 C.3       12 UNK        -0.0947 
     70 S70        32.6940   -4.7745   -5.4596 S.3       12 UNK        -0.2240 
     71 C71        33.6375   -4.1260   -4.0415 C.3       12 UNK         0.0194 
     72 H72        23.8103   -3.9070    0.3069 H         1 UNK         0.0906 
     73 H73        23.0367   -4.4914   -1.1682 H         1 UNK         0.0906 
     74 H74        24.4992   -5.2762   -0.5671 H         1 UNK         0.0906 
     75 H75        24.9297   -2.0477   -0.0296 H         1 UNK         0.3140 
     76 H76        25.8403   -0.2867   -0.9652 H         1 UNK         0.1085 
     77 H77        28.2400   -0.5858   -1.6191 H         1 UNK         0.0836 
     78 H78        27.7618   -1.3300   -0.1286 H         1 UNK         0.0836 
     79 H79        30.0899   -4.0349   -0.4951 H         1 UNK         0.0731 
     80 H80        29.8361   -2.4096    0.0706 H         1 UNK         0.0731 
     81 H81        31.4857   -4.5210   -2.4416 H         1 UNK         0.1312 
     82 H82        34.0834   -1.4217   -3.8627 H         1 UNK         0.1406 
     83 H83        30.9141   -0.4798   -1.1240 H         1 UNK         0.1631 
     84 H84        34.0979    0.6627   -2.3254 H         1 UNK         0.0717 
     85 H85        32.6014    1.1893   -1.6134 H         1 UNK         0.0717 
     86 H86        30.6190    1.9403   -2.7172 H         1 UNK         0.0934 
     87 H87        31.2111    3.3942   -3.4819 H         1 UNK         0.0934 
     88 H88        30.5039    2.4639   -5.7254 H         1 UNK         0.0739 
     89 H89        30.3867    0.0871   -4.5068 H         1 UNK         0.3093 
     90 H90        29.4596   -1.5431   -7.0899 H         1 UNK         0.0818 
     91 H91        29.7637   -1.8523   -4.0489 H         1 UNK         0.0819 
     92 H92        30.0751   -3.1367   -5.1954 H         1 UNK         0.0819 
     93 H93        31.0814   -1.7013   -5.2158 H         1 UNK         0.0819 
     94 H94        27.1334   -1.4936   -5.3577 H         1 UNK         0.3041 
     95 H95        25.4339   -3.5945   -7.3252 H         1 UNK         0.0784 
     96 H96        26.3773   -5.6942   -6.3940 H         1 UNK         0.0793 
     97 H97        26.3872   -5.0081   -4.7753 H         1 UNK         0.0793 
     98 H98        24.8578   -5.3189   -5.5969 H         1 UNK         0.0793 
     99 H99        25.0511   -2.9387   -4.5141 H         1 UNK         0.3024 
    100 H100       24.3913    0.4769   -4.9849 H         1 UNK         0.1171 
    101 H101       22.1803   -0.3922   -5.7927 H         1 UNK         0.0786 
    102 H102       22.2045   -1.6304   -4.5452 H         1 UNK         0.0786 
    103 H103       22.1093    0.0755   -4.1026 H         1 UNK         0.0786 
    104 H104       23.8889   -1.2540   -2.7701 H         1 UNK         0.2977 
    105 H105       27.5633    1.5123   -4.0034 H         1 UNK         0.3127 
    106 H106       26.7916    4.3183   -3.5494 H         1 UNK         0.0770 
    107 H107       25.0234    1.9045   -3.0550 H         1 UNK         0.0814 
    108 H108       24.9661    3.4825   -2.3126 H         1 UNK         0.0814 
    109 H109       26.2837    2.3927   -1.9134 H         1 UNK         0.0814 
    110 H110       26.4477    2.0987   -6.2251 H         1 UNK         0.2983 
    111 H111       24.7396    4.0497   -7.5495 H         1 UNK         0.0947 
    112 H112       22.9028    2.5283   -8.1649 H         1 UNK         0.0806 
    113 H113       22.9639    2.7123   -6.4215 H         1 UNK         0.0806 
    114 H114       23.5728    1.2443   -7.1798 H         1 UNK         0.0806 
    115 H115       25.8998    0.6367   -7.9247 H         1 UNK         0.3000 
    116 H116       26.2120    0.8238  -10.7428 H         1 UNK         0.0850 
    117 H117       27.4680   -1.3156  -10.4716 H         1 UNK         0.0810 
    118 H118       25.9957   -1.3341   -9.5108 H         1 UNK         0.0810 
    119 H119       27.5573   -1.0611   -8.7384 H         1 UNK         0.0810 
    120 H120       28.3381    1.7342   -8.1488 H         1 UNK         0.3040 
    121 H121       30.1384    2.9887   -7.9732 H         1 UNK         0.0766 
    122 H122       29.4192    4.4241   -9.8663 H         1 UNK         0.0812 
    123 H123       30.2362    3.3624  -11.0108 H         1 UNK         0.0812 
    124 H124       31.1665    4.2499   -9.8170 H         1 UNK         0.0812 
    125 H125       30.4968    0.8311  -10.7819 H         1 UNK         0.3205 
    126 H126       33.1500   -0.1601   -9.9243 H         1 UNK         0.0754 
    127 H127       32.8972   -1.6555  -11.9129 H         1 UNK         0.0769 
    128 H128       32.6650    0.0264  -12.3653 H         1 UNK         0.0769 
    129 H129       31.2726   -1.0415  -12.1915 H         1 UNK         0.0769 
    130 H130       33.4034   -1.9746   -8.6911 H         1 UNK         0.2981 
    131 H131       31.1796   -3.0846   -7.2807 H         1 UNK         0.0541 
    132 H132       30.2164   -5.8998   -9.1608 H         1 UNK         0.3459 
    133 H133       29.7440   -4.6021   -8.0893 H         1 UNK         0.3459 
    134 H134       33.4958   -2.6990   -6.3407 H         1 UNK         0.0612 
    135 H135       34.0866   -4.0440   -7.2837 H         1 UNK         0.0612 
    136 H136       34.5948   -3.7289   -4.3828 H         1 UNK         0.0624 
    137 H137       33.8771   -4.9590   -3.3792 H         1 UNK         0.0624 
@<TRIPOS>BOND
     1    1    2 1    
     2    1   72 1    
     3    1   73 1    
     4    1   74 1    
     5    2    3 2    
     6    2    4 am   BACKBONE|DICT|INTERRES
     7    4    5 1    
     8    4   75 1    
     9    5    6 1    
    10    5   35 1    
    11    5   76 1    
    12    6    7 1    
    13    6   77 1    
    14    6   78 1    
    15    7    8 1    
    16    8    9 1    
    17    8   79 1    
    18    8   80 1    
    19    9   10 ar   
    20    9   14 ar   
    21   10   11 ar   
    22   10   81 1    
    23   11   12 ar   
    24   11   71 1    
    25   12   13 ar   
    26   12   82 1    
    27   13   14 ar   
    28   13   15 1    
    29   14   83 1    
    30   15   16 1    
    31   15   84 1    
    32   15   85 1    
    33   16   17 1    
    34   17   18 1    
    35   17   86 1    
    36   17   87 1    
    37   18   19 1    
    38   18   37 1    
    39   18   88 1    
    40   19   20 am   BACKBONE|DICT|INTERRES
    41   19   89 1    
    42   20   21 2    
    43   20   22 1    
    44   22   23 1    
    45   22   24 1    
    46   22   90 1    
    47   23   91 1    
    48   23   92 1    
    49   23   93 1    
    50   24   25 am   BACKBONE|DICT|INTERRES
    51   24   94 1    
    52   25   26 2    
    53   25   27 1    
    54   27   28 1    
    55   27   29 1    
    56   27   95 1    
    57   28   96 1    
    58   28   97 1    
    59   28   98 1    
    60   29   30 am   BACKBONE|DICT|INTERRES
    61   29   99 1    
    62   30   31 2    
    63   30   32 1    
    64   32   33 1    
    65   32   34 1    
    66   32  100 1    
    67   33  101 1    
    68   33  102 1    
    69   33  103 1    
    70   34   35 am   BACKBONE|DICT|INTERRES
    71   34  104 1    
    72   35   36 2    
    73   37   38 2    
    74   37   39 am   BACKBONE|DICT|INTERRES
    75   39   40 1    
    76   39  105 1    
    77   40   41 1    
    78   40   42 1    
    79   40  106 1    
    80   41  107 1    
    81   41  108 1    
    82   41  109 1    
    83   42   43 2    
    84   42   44 am   BACKBONE|DICT|INTERRES
    85   44   45 1    
    86   44  110 1    
    87   45   46 1    
    88   45   47 1    
    89   45  111 1    
    90   46  112 1    
    91   46  113 1    
    92   46  114 1    
    93   47   48 2    
    94   47   49 am   BACKBONE|DICT|INTERRES
    95   49   50 1    
    96   49  115 1    
    97   50   51 1    
    98   50   52 1    
    99   50  116 1    
   100   51  117 1    
   101   51  118 1    
   102   51  119 1    
   103   52   53 2    
   104   52   54 am   BACKBONE|DICT|INTERRES
   105   54   55 1    
   106   54  120 1    
   107   55   56 1    
   108   55   57 1    
   109   55  121 1    
   110   56  122 1    
   111   56  123 1    
   112   56  124 1    
   113   57   58 2    
   114   57   59 am   BACKBONE|DICT|INTERRES
   115   59   60 1    
   116   59  125 1    
   117   60   61 1    
   118   60   62 1    
   119   60  126 1    
   120   61  127 1    
   121   61  128 1    
   122   61  129 1    
   123   62   63 2    
   124   62   64 am   BACKBONE|DICT|INTERRES
   125   64   65 1    
   126   64  130 1    
   127   65   66 1    
   128   65   69 1    
   129   65  131 1    
   130   66   67 am   BACKBONE|DICT|INTERRES
   131   66   68 2    
   132   67  132 1    
   133   67  133 1    
   134   69   70 1    
   135   69  134 1    
   136   69  135 1    
   137   70   71 1    
   138   71  136 1    
   139   71  137 1    
@<TRIPOS>SUBSTRUCTURE
     1 UNK         1 GROUP             0       ****    0 ROOT    
