@<TRIPOS>MOLECULE
3R137
137   139    1
SMALL
USER_CHARGES


@<TRIPOS>ATOM
      1 CA         28.9799   -4.9948   -9.6287 C.3       0 UNK        -0.2020 
      2 C          28.7352   -5.2698   -8.1527 C.2       0 UNK         0.4855 
      3 O          28.8028   -6.4237   -7.7290 O.2       0 UNK        -0.5197 
      4 N          28.4465   -4.2224   -7.3659 N.am      1 UNK        -0.4892 
      5 CA         28.1494   -4.3254   -5.9263 C.3       1 UNK         0.0835 
      6 C6         28.3343   -2.9720   -5.1812 C.3       12 UNK        -0.0855 
      7 S7         29.1474   -3.1951   -3.5624 S.3       12 UNK        -0.2931 
      8 C8         30.7942   -2.4440   -3.8214 C.3       12 UNK         0.0378 
      9 C9         30.9080   -1.0110   -3.3015 C.ar      12 UNK        -0.0802 
     10 C10        31.5869   -0.0441   -4.0525 C.ar      12 UNK        -0.0944 
     11 C11        31.7780    1.2547   -3.5583 C.ar      12 UNK        -0.0787 
     12 C12        31.2606    1.5761   -2.3008 C.ar      12 UNK        -0.0862 
     13 C13        30.5566    0.6325   -1.5483 C.ar      12 UNK        -0.0733 
     14 C14        30.3988   -0.6625   -2.0458 C.ar      12 UNK        -0.0832 
     15 C15        29.9599    1.0159   -0.2011 C.3       12 UNK         0.0240 
     16 S16        28.1603    1.2926   -0.3074 S.3       12 UNK        -0.2522 
     17 C17        28.0597    2.6140   -1.5619 C.3       12 UNK        -0.0967 
     18 CA         27.5847    2.0628   -2.9299 C.3       5 UNK         0.0660 
     19 N          26.1749    1.6654   -2.8749 N.am      5 UNK        -0.4015 
     20 C          25.4256    1.2008   -3.8837 C.2       4 UNK         0.4946 
     21 O          25.8262    1.0321   -5.0395 O.2       4 UNK        -0.5353 
     22 CA         23.9525    0.9336   -3.5271 C.3       4 UNK         0.0277 
     23 CB         23.1125    2.2044   -3.7386 C.3       4 UNK        -0.1981 
     24 N          23.3477   -0.1646   -4.2833 N.am      4 UNK        -0.4209 
     25 C          23.7304   -1.4472   -4.2366 C.2       3 UNK         0.4942 
     26 O          24.6850   -1.8561   -3.5728 O.2       3 UNK        -0.5208 
     27 CA         22.8877   -2.4583   -5.0306 C.3       3 UNK         0.0250 
     28 CB         21.9316   -1.8340   -6.0730 C.3       3 UNK        -0.1990 
     29 N          23.7777   -3.4239   -5.6690 N.am      3 UNK        -0.4232 
     30 C          23.4766   -4.6996   -5.9353 C.2       2 UNK         0.4993 
     31 O          22.3891   -5.2136   -5.6683 O.2       2 UNK        -0.5286 
     32 CA         24.5486   -5.5515   -6.6388 C.3       2 UNK         0.0209 
     33 CB         24.1249   -5.8564   -8.0859 C.3       2 UNK        -0.1931 
     34 N          25.8786   -4.9357   -6.6652 N.am      2 UNK        -0.4546 
     35 C          26.7587   -4.9488   -5.6533 C.2       1 UNK         0.5154 
     36 O          26.5130   -5.4439   -4.5528 O.2       1 UNK        -0.5181 
     37 C          27.8473    3.0955   -4.0411 C.2       5 UNK         0.5014 
     38 O          27.0812    4.0533   -4.1764 O.2       5 UNK        -0.5248 
     39 N          28.9182    2.8686   -4.8143 N.am      6 UNK        -0.4434 
     40 CA         29.3784    3.6218   -5.9900 C.3       6 UNK         0.0363 
     41 CB         29.6910    5.0921   -5.6503 C.3       6 UNK        -0.1936 
     42 C          28.4510    3.5130   -7.2120 C.2       6 UNK         0.5081 
     43 O          28.9443    3.2807   -8.3154 O.2       6 UNK        -0.5248 
     44 N          27.1350    3.6449   -7.0047 N.am      7 UNK        -0.4718 
     45 CA         26.0901    3.5336   -8.0264 C.3       7 UNK         0.0273 
     46 CB         24.7233    3.8259   -7.3887 C.3       7 UNK        -0.1935 
     47 C          26.0760    2.1683   -8.7338 C.2       7 UNK         0.5018 
     48 O          25.9034    2.1216   -9.9521 O.2       7 UNK        -0.5186 
     49 N          26.2953    1.0933   -7.9654 N.am      8 UNK        -0.4240 
     50 CA         26.4140   -0.2769   -8.4650 C.3       8 UNK         0.0235 
     51 CB         25.7536   -1.2287   -7.4569 C.3       8 UNK        -0.2000 
     52 C          27.8654   -0.6937   -8.7760 C.2       8 UNK         0.4941 
     53 O          28.0977   -1.8882   -8.9630 O.2       8 UNK        -0.5273 
     54 N          28.8055    0.2644   -8.8394 N.am      9 UNK        -0.4262 
     55 CA         30.2238    0.0952   -9.1908 C.3       9 UNK         0.0264 
     56 CB         30.3570   -0.2618  -10.6894 C.3       9 UNK        -0.1955 
     57 C          30.9785   -0.8745   -8.2537 C.2       9 UNK         0.5031 
     58 O          30.6294   -0.9638   -7.0784 O.2       9 UNK        -0.5390 
     59 N          32.0094   -1.5566   -8.7806 N.am      10 UNK        -0.4204 
     60 CA         32.8519   -2.5684   -8.1205 C.3       10 UNK         0.0237 
     61 CB         32.0460   -3.8551   -7.8520 C.3       10 UNK        -0.1985 
     62 C          33.5920   -2.0623   -6.8654 C.2       10 UNK         0.4970 
     63 O          33.7269   -2.8006   -5.8879 O.2       10 UNK        -0.4914 
     64 N          34.0670   -0.8130   -6.9181 N.am      11 UNK        -0.4285 
     65 CA         34.7902   -0.1487   -5.8210 C.3       11 UNK         0.1007 
     66 C          36.2727   -0.5940   -5.6541 C.2       11 UNK         0.5703 
     67 N          36.8485   -1.3600   -6.5736 N.am      11 UNK        -0.7361 
     68 O          36.9113   -0.2427   -4.6649 O.2       11 UNK        -0.4986 
     69 C69        34.6789    1.3945   -5.9155 C.3       12 UNK        -0.0947 
     70 S70        32.9598    1.9947   -6.0560 S.3       12 UNK        -0.2240 
     71 C71        32.5304    2.3534   -4.3169 C.3       12 UNK         0.0194 
     72 H72        29.3615   -3.9878   -9.7927 H         1 UNK         0.0906 
     73 H73        29.7110   -5.6961  -10.0301 H         1 UNK         0.0906 
     74 H74        28.0537   -5.1076  -10.1913 H         1 UNK         0.0906 
     75 H75        28.3930   -3.2948   -7.7879 H         1 UNK         0.3140 
     76 H76        28.8751   -5.0360   -5.5232 H         1 UNK         0.1085 
     77 H77        27.3830   -2.4673   -5.0073 H         1 UNK         0.0836 
     78 H78        28.9219   -2.2750   -5.7765 H         1 UNK         0.0836 
     79 H79        31.0625   -2.5007   -4.8771 H         1 UNK         0.0731 
     80 H80        31.5321   -3.0500   -3.2946 H         1 UNK         0.0731 
     81 H81        31.9779   -0.3217   -5.0188 H         1 UNK         0.1312 
     82 H82        31.3994    2.5748   -1.9089 H         1 UNK         0.1406 
     83 H83        29.8724   -1.3987   -1.4535 H         1 UNK         0.1631 
     84 H84        30.4388    1.9135    0.1932 H         1 UNK         0.0717 
     85 H85        30.1545    0.2239    0.5236 H         1 UNK         0.0717 
     86 H86        27.3766    3.3860   -1.2018 H         1 UNK         0.0934 
     87 H87        29.0302    3.1058   -1.6412 H         1 UNK         0.0934 
     88 H88        28.1540    1.1615   -3.1681 H         1 UNK         0.0739 
     89 H89        25.7383    1.7797   -1.9726 H         1 UNK         0.3093 
     90 H90        23.9024    0.6595   -2.4709 H         1 UNK         0.0818 
     91 H91        23.5348    3.0522   -3.1969 H         1 UNK         0.0819 
     92 H92        23.0628    2.4844   -4.7909 H         1 UNK         0.0819 
     93 H93        22.0920    2.0703   -3.3793 H         1 UNK         0.0819 
     94 H94        22.5720    0.0780   -4.8813 H         1 UNK         0.3041 
     95 H95        22.2821   -2.9830   -4.2885 H         1 UNK         0.0784 
     96 H96        21.1873   -1.1933   -5.5988 H         1 UNK         0.0793 
     97 H97        22.4625   -1.2393   -6.8161 H         1 UNK         0.0793 
     98 H98        21.3781   -2.6058   -6.6084 H         1 UNK         0.0793 
     99 H99        24.7196   -3.1043   -5.8417 H         1 UNK         0.3024 
    100 H100       24.6130   -6.4966   -6.0943 H         1 UNK         0.1171 
    101 H101       24.0397   -4.9469   -8.6822 H         1 UNK         0.0786 
    102 H102       24.8395   -6.5165   -8.5782 H         1 UNK         0.0786 
    103 H103       23.1552   -6.3556   -8.1134 H         1 UNK         0.0786 
    104 H104       26.1801   -4.5348   -7.5416 H         1 UNK         0.2977 
    105 H105       29.4571    2.0342   -4.6215 H         1 UNK         0.3127 
    106 H106       30.3161    3.1522   -6.2851 H         1 UNK         0.0770 
    107 H107       28.7933    5.6540   -5.3913 H         1 UNK         0.0814 
    108 H108       30.1500    5.5951   -6.5023 H         1 UNK         0.0814 
    109 H109       30.3868    5.1692   -4.8153 H         1 UNK         0.0814 
    110 H110       26.8356    3.8263   -6.0497 H         1 UNK         0.2983 
    111 H111       26.2886    4.2947   -8.7840 H         1 UNK         0.0947 
    112 H112       23.9250    3.7703   -8.1301 H         1 UNK         0.0806 
    113 H113       24.6929    4.8247   -6.9530 H         1 UNK         0.0806 
    114 H114       24.4896    3.1090   -6.6013 H         1 UNK         0.0806 
    115 H115       26.3689    1.2163   -6.9580 H         1 UNK         0.3000 
    116 H116       25.8634   -0.3674   -9.4036 H         1 UNK         0.0850 
    117 H117       26.2680   -1.2071   -6.4980 H         1 UNK         0.0810 
    118 H118       25.7538   -2.2555   -7.8218 H         1 UNK         0.0810 
    119 H119       24.7170   -0.9460   -7.2827 H         1 UNK         0.0810 
    120 H120       28.5294    1.2188   -8.6394 H         1 UNK         0.3040 
    121 H121       30.6836    1.0729   -9.0396 H         1 UNK         0.0766 
    122 H122       30.0151   -1.2771  -10.8963 H         1 UNK         0.0812 
    123 H123       29.7660    0.4154  -11.3063 H         1 UNK         0.0812 
    124 H124       31.3876   -0.1774  -11.0352 H         1 UNK         0.0812 
    125 H125       32.2208   -1.3897   -9.7546 H         1 UNK         0.3205 
    126 H126       33.6345   -2.8232   -8.8365 H         1 UNK         0.0754 
    127 H127       32.6800   -4.6441   -7.4456 H         1 UNK         0.0769 
    128 H128       31.6100   -4.2413   -8.7715 H         1 UNK         0.0769 
    129 H129       31.2415   -3.6830   -7.1366 H         1 UNK         0.0769 
    130 H130       33.9139   -0.2623   -7.7490 H         1 UNK         0.2981 
    131 H131       34.3074   -0.4423   -4.8878 H         1 UNK         0.0541 
    132 H132       37.8076   -1.6436   -6.4491 H         1 UNK         0.3459 
    133 H133       36.3360   -1.6554   -7.3883 H         1 UNK         0.3459 
    134 H134       35.2213    1.7531   -6.7920 H         1 UNK         0.0612 
    135 H135       35.1556    1.8700   -5.0569 H         1 UNK         0.0612 
    136 H136       33.4311    2.6143   -3.7606 H         1 UNK         0.0624 
    137 H137       31.9139    3.2525   -4.3175 H         1 UNK         0.0624 
@<TRIPOS>BOND
     1    1    2 1    
     2    1   72 1    
     3    1   73 1    
     4    1   74 1    
     5    2    3 2    
     6    2    4 am   BACKBONE|DICT|INTERRES
     7    4    5 1    
     8    4   75 1    
     9    5    6 1    
    10    5   35 1    
    11    5   76 1    
    12    6    7 1    
    13    6   77 1    
    14    6   78 1    
    15    7    8 1    
    16    8    9 1    
    17    8   79 1    
    18    8   80 1    
    19    9   10 ar   
    20    9   14 ar   
    21   10   11 ar   
    22   10   81 1    
    23   11   12 ar   
    24   11   71 1    
    25   12   13 ar   
    26   12   82 1    
    27   13   14 ar   
    28   13   15 1    
    29   14   83 1    
    30   15   16 1    
    31   15   84 1    
    32   15   85 1    
    33   16   17 1    
    34   17   18 1    
    35   17   86 1    
    36   17   87 1    
    37   18   19 1    
    38   18   37 1    
    39   18   88 1    
    40   19   20 am   BACKBONE|DICT|INTERRES
    41   19   89 1    
    42   20   21 2    
    43   20   22 1    
    44   22   23 1    
    45   22   24 1    
    46   22   90 1    
    47   23   91 1    
    48   23   92 1    
    49   23   93 1    
    50   24   25 am   BACKBONE|DICT|INTERRES
    51   24   94 1    
    52   25   26 2    
    53   25   27 1    
    54   27   28 1    
    55   27   29 1    
    56   27   95 1    
    57   28   96 1    
    58   28   97 1    
    59   28   98 1    
    60   29   30 am   BACKBONE|DICT|INTERRES
    61   29   99 1    
    62   30   31 2    
    63   30   32 1    
    64   32   33 1    
    65   32   34 1    
    66   32  100 1    
    67   33  101 1    
    68   33  102 1    
    69   33  103 1    
    70   34   35 am   BACKBONE|DICT|INTERRES
    71   34  104 1    
    72   35   36 2    
    73   37   38 2    
    74   37   39 am   BACKBONE|DICT|INTERRES
    75   39   40 1    
    76   39  105 1    
    77   40   41 1    
    78   40   42 1    
    79   40  106 1    
    80   41  107 1    
    81   41  108 1    
    82   41  109 1    
    83   42   43 2    
    84   42   44 am   BACKBONE|DICT|INTERRES
    85   44   45 1    
    86   44  110 1    
    87   45   46 1    
    88   45   47 1    
    89   45  111 1    
    90   46  112 1    
    91   46  113 1    
    92   46  114 1    
    93   47   48 2    
    94   47   49 am   BACKBONE|DICT|INTERRES
    95   49   50 1    
    96   49  115 1    
    97   50   51 1    
    98   50   52 1    
    99   50  116 1    
   100   51  117 1    
   101   51  118 1    
   102   51  119 1    
   103   52   53 2    
   104   52   54 am   BACKBONE|DICT|INTERRES
   105   54   55 1    
   106   54  120 1    
   107   55   56 1    
   108   55   57 1    
   109   55  121 1    
   110   56  122 1    
   111   56  123 1    
   112   56  124 1    
   113   57   58 2    
   114   57   59 am   BACKBONE|DICT|INTERRES
   115   59   60 1    
   116   59  125 1    
   117   60   61 1    
   118   60   62 1    
   119   60  126 1    
   120   61  127 1    
   121   61  128 1    
   122   61  129 1    
   123   62   63 2    
   124   62   64 am   BACKBONE|DICT|INTERRES
   125   64   65 1    
   126   64  130 1    
   127   65   66 1    
   128   65   69 1    
   129   65  131 1    
   130   66   67 am   BACKBONE|DICT|INTERRES
   131   66   68 2    
   132   67  132 1    
   133   67  133 1    
   134   69   70 1    
   135   69  134 1    
   136   69  135 1    
   137   70   71 1    
   138   71  136 1    
   139   71  137 1    
@<TRIPOS>SUBSTRUCTURE
     1 UNK         1 GROUP             0       ****    0 ROOT    
