@<TRIPOS>MOLECULE
3R137
137   139    1
SMALL
USER_CHARGES


@<TRIPOS>ATOM
      1 CA         24.0046   -5.2053   -3.2232 C.3       0 UNK        -0.2020 
      2 C          24.5019   -4.2119   -2.1838 C.2       0 UNK         0.4855 
      3 O          23.7718   -3.2895   -1.8213 O.2       0 UNK        -0.5197 
      4 N          25.7340   -4.3985   -1.6954 N.am      1 UNK        -0.4892 
      5 CA         26.3977   -3.5216   -0.7252 C.3       1 UNK         0.0835 
      6 C6         27.6007   -4.2184   -0.0300 C.3       12 UNK        -0.0855 
      7 S7         28.7402   -5.0959   -1.1571 S.3       12 UNK        -0.2931 
      8 C8         29.9831   -3.8069   -1.5310 C.3       12 UNK         0.0378 
      9 C9         30.3883   -3.6988   -3.0034 C.ar      12 UNK        -0.0802 
     10 C10        31.4865   -2.8962   -3.3310 C.ar      12 UNK        -0.0944 
     11 C11        31.8907   -2.7441   -4.6597 C.ar      12 UNK        -0.0787 
     12 C12        31.1757   -3.3906   -5.6698 C.ar      12 UNK        -0.0862 
     13 C13        30.0640   -4.1830   -5.3733 C.ar      12 UNK        -0.0733 
     14 C14        29.6920   -4.3477   -4.0344 C.ar      12 UNK        -0.0832 
     15 C15        29.3211   -4.8575   -6.5300 C.3       12 UNK         0.0240 
     16 S16        27.5797   -5.3432   -6.2305 S.3       12 UNK        -0.2522 
     17 C17        26.7581   -3.8269   -5.6302 C.3       12 UNK        -0.0967 
     18 CA         26.5194   -2.7366   -6.7080 C.3       5 UNK         0.0660 
     19 N          25.2973   -1.9704   -6.4355 N.am      5 UNK        -0.4015 
     20 C          24.7735   -1.0350   -7.2414 C.2       4 UNK         0.4946 
     21 O          25.2338   -0.7373   -8.3425 O.2       4 UNK        -0.5353 
     22 CA         23.5438   -0.2710   -6.7193 C.3       4 UNK         0.0277 
     23 CB         22.2545   -1.0346   -7.0616 C.3       4 UNK        -0.1981 
     24 N          23.5676    0.0301   -5.2824 N.am      4 UNK        -0.4209 
     25 C          24.5420    0.6854   -4.6341 C.2       3 UNK         0.4942 
     26 O          25.5910    1.0487   -5.1671 O.2       3 UNK        -0.5208 
     27 CA         24.3354    0.9773   -3.1418 C.3       3 UNK         0.0250 
     28 CB         23.0380    0.3973   -2.5387 C.3       3 UNK        -0.1990 
     29 N          25.4893    0.4505   -2.4254 N.am      3 UNK        -0.4232 
     30 C          26.0967    1.0044   -1.3742 C.2       2 UNK         0.4993 
     31 O          25.7280    2.0541   -0.8437 O.2       2 UNK        -0.5286 
     32 CA         27.3073    0.2286   -0.8128 C.3       2 UNK         0.0209 
     33 CB         27.9318    0.9095    0.4197 C.3       2 UNK        -0.1931 
     34 N          26.9678   -1.1564   -0.4678 N.am      2 UNK        -0.4546 
     35 C          26.7851   -2.1586   -1.3391 C.2       1 UNK         0.5154 
     36 O          26.9078   -2.0235   -2.5621 O.2       1 UNK        -0.5181 
     37 C          27.7356   -1.7998   -6.8370 C.2       5 UNK         0.5014 
     38 O          28.4033   -1.7922   -7.8732 O.2       5 UNK        -0.5248 
     39 N          27.9706   -1.0013   -5.7868 N.am      6 UNK        -0.4434 
     40 CA         29.0660   -0.0389   -5.7115 C.3       6 UNK         0.0363 
     41 CB         29.1588    0.5270   -4.2880 C.3       6 UNK        -0.1936 
     42 C          28.9570    1.0877   -6.7484 C.2       6 UNK         0.5081 
     43 O          29.9801    1.5036   -7.2918 O.2       6 UNK        -0.5248 
     44 N          27.7257    1.5359   -7.0295 N.am      7 UNK        -0.4718 
     45 CA         27.4134    2.5143   -8.0716 C.3       7 UNK         0.0273 
     46 CB         25.9465    2.9541   -7.9484 C.3       7 UNK        -0.1935 
     47 C          27.7106    1.9899   -9.4861 C.2       7 UNK         0.5018 
     48 O          28.2991    2.7227  -10.2810 O.2       7 UNK        -0.5186 
     49 N          27.3297    0.7342   -9.7685 N.am      8 UNK        -0.4240 
     50 CA         27.6099    0.0518  -11.0356 C.3       8 UNK         0.0235 
     51 CB         26.7974   -1.2500  -11.1232 C.3       8 UNK        -0.2000 
     52 C          29.1072   -0.2289  -11.2389 C.2       8 UNK         0.4941 
     53 O          29.6107   -0.0398  -12.3470 O.2       8 UNK        -0.5273 
     54 N          29.7938   -0.6537  -10.1686 N.am      9 UNK        -0.4262 
     55 CA         31.2435   -0.8706  -10.1504 C.3       9 UNK         0.0264 
     56 CB         31.6113   -1.6792   -8.8991 C.3       9 UNK        -0.1955 
     57 C          32.0620    0.4324  -10.2002 C.2       9 UNK         0.5031 
     58 O          33.2116    0.3986  -10.6413 O.2       9 UNK        -0.5390 
     59 N          31.4641    1.5379   -9.7326 N.am      10 UNK        -0.4204 
     60 CA         32.0362    2.8782   -9.5723 C.3       10 UNK         0.0237 
     61 CB         32.4213    3.4903  -10.9363 C.3       10 UNK        -0.1985 
     62 C          33.1788    2.9195   -8.5379 C.2       10 UNK         0.4970 
     63 O          34.1164    3.7043   -8.6939 O.2       10 UNK        -0.4914 
     64 N          33.0779    2.0813   -7.4972 N.am      11 UNK        -0.4285 
     65 CA         34.0406    2.0078   -6.3860 C.3       11 UNK         0.1007 
     66 C          33.7935    3.0493   -5.2554 C.2       11 UNK         0.5703 
     67 N          32.6870    3.7846   -5.2579 N.am      11 UNK        -0.7361 
     68 O          34.6324    3.2072   -4.3714 O.2       11 UNK        -0.4986 
     69 C69        34.1906    0.5604   -5.8448 C.3       12 UNK        -0.0947 
     70 S70        32.6442   -0.1424   -5.1870 S.3       12 UNK        -0.2240 
     71 C71        33.1019   -1.8908   -5.0084 C.3       12 UNK         0.0194 
     72 H72        23.6179   -4.6782   -4.0948 H         1 UNK         0.0906 
     73 H73        24.7954   -5.8779   -3.5557 H         1 UNK         0.0906 
     74 H74        23.1980   -5.8083   -2.8070 H         1 UNK         0.0906 
     75 H75        26.3086   -5.1537   -2.0425 H         1 UNK         0.3140 
     76 H76        25.6612   -3.3035    0.0522 H         1 UNK         0.1085 
     77 H77        28.1624   -3.5247    0.5989 H         1 UNK         0.0836 
     78 H78        27.2116   -4.9680    0.6610 H         1 UNK         0.0836 
     79 H79        30.8691   -4.0090   -0.9273 H         1 UNK         0.0731 
     80 H80        29.6149   -2.8308   -1.2145 H         1 UNK         0.0731 
     81 H81        32.0318   -2.3858   -2.5486 H         1 UNK         0.1312 
     82 H82        31.4903   -3.2780   -6.6958 H         1 UNK         0.1406 
     83 H83        28.8451   -4.9752   -3.8045 H         1 UNK         0.1631 
     84 H84        29.8742   -5.7572   -6.8023 H         1 UNK         0.0717 
     85 H85        29.3480   -4.2167   -7.4116 H         1 UNK         0.0717 
     86 H86        25.7956   -4.1698   -5.2515 H         1 UNK         0.0934 
     87 H87        27.2715   -3.4359   -4.7520 H         1 UNK         0.0934 
     88 H88        26.3723   -3.2237   -7.6744 H         1 UNK         0.0739 
     89 H89        24.8495   -2.1295   -5.5460 H         1 UNK         0.3093 
     90 H90        23.5156    0.6863   -7.2430 H         1 UNK         0.0818 
     91 H91        21.3682   -0.4505   -6.8129 H         1 UNK         0.0819 
     92 H92        22.2035   -1.2550   -8.1291 H         1 UNK         0.0819 
     93 H93        22.1918   -1.9847   -6.5296 H         1 UNK         0.0819 
     94 H94        22.7476   -0.2339   -4.7553 H         1 UNK         0.3041 
     95 H95        24.3101    2.0645   -3.0425 H         1 UNK         0.0784 
     96 H96        22.1523    0.7994   -3.0323 H         1 UNK         0.0793 
     97 H97        23.0045   -0.6909   -2.6100 H         1 UNK         0.0793 
     98 H98        22.9529    0.6554   -1.4829 H         1 UNK         0.0793 
     99 H99        25.8805   -0.4179   -2.7808 H         1 UNK         0.3024 
    100 H100       28.0660    0.2127   -1.5966 H         1 UNK         0.1171 
    101 H101       28.8178    0.3746    0.7625 H         1 UNK         0.0786 
    102 H102       28.2429    1.9290    0.1874 H         1 UNK         0.0786 
    103 H103       27.2285    0.9642    1.2516 H         1 UNK         0.0786 
    104 H104       26.8185   -1.3381    0.5147 H         1 UNK         0.2977 
    105 H105       27.3623   -1.0576   -4.9827 H         1 UNK         0.3127 
    106 H106       29.9808   -0.5902   -5.9266 H         1 UNK         0.0770 
    107 H107       28.2394    1.0358   -3.9962 H         1 UNK         0.0814 
    108 H108       29.9733    1.2484   -4.2080 H         1 UNK         0.0814 
    109 H109       29.3587   -0.2666   -3.5677 H         1 UNK         0.0814 
    110 H110       26.9454    1.1845   -6.4782 H         1 UNK         0.2983 
    111 H111       28.0462    3.3886   -7.9035 H         1 UNK         0.0947 
    112 H112       25.7056    3.7205   -8.6862 H         1 UNK         0.0806 
    113 H113       25.7393    3.3735   -6.9636 H         1 UNK         0.0806 
    114 H114       25.2620    2.1211   -8.1074 H         1 UNK         0.0806 
    115 H115       26.8060    0.2066   -9.0747 H         1 UNK         0.3000 
    116 H116       27.2850    0.7079  -11.8460 H         1 UNK         0.0850 
    117 H117       26.9935   -1.7725  -12.0604 H         1 UNK         0.0810 
    118 H118       25.7265   -1.0505  -11.0810 H         1 UNK         0.0810 
    119 H119       27.0408   -1.9336  -10.3088 H         1 UNK         0.0810 
    120 H120       29.2843   -0.8629   -9.3120 H         1 UNK         0.3040 
    121 H121       31.5109   -1.4604  -11.0297 H         1 UNK         0.0766 
    122 H122       31.3345   -1.1516   -7.9854 H         1 UNK         0.0812 
    123 H123       32.6841   -1.8724   -8.8544 H         1 UNK         0.0812 
    124 H124       31.1046   -2.6441   -8.8993 H         1 UNK         0.0812 
    125 H125       30.5485    1.4222   -9.3119 H         1 UNK         0.3205 
    126 H126       31.2355    3.4908   -9.1553 H         1 UNK         0.0754 
    127 H127       32.7000    4.5393  -10.8295 H         1 UNK         0.0769 
    128 H128       31.5874    3.4473  -11.6372 H         1 UNK         0.0769 
    129 H129       33.2682    2.9740  -11.3892 H         1 UNK         0.0769 
    130 H130       32.2424    1.5171   -7.4032 H         1 UNK         0.2981 
    131 H131       35.0203    2.2709   -6.7892 H         1 UNK         0.0541 
    132 H132       31.9890    3.6519   -5.9717 H         1 UNK         0.3459 
    133 H133       32.5422    4.4614   -4.5258 H         1 UNK         0.3459 
    134 H134       34.9540    0.5154   -5.0660 H         1 UNK         0.0612 
    135 H135       34.5458   -0.0864   -6.6485 H         1 UNK         0.0612 
    136 H136       33.5533   -2.2440   -5.9369 H         1 UNK         0.0624 
    137 H137       33.8655   -1.9867   -4.2351 H         1 UNK         0.0624 
@<TRIPOS>BOND
     1    1    2 1    
     2    1   72 1    
     3    1   73 1    
     4    1   74 1    
     5    2    3 2    
     6    2    4 am   BACKBONE|DICT|INTERRES
     7    4    5 1    
     8    4   75 1    
     9    5    6 1    
    10    5   35 1    
    11    5   76 1    
    12    6    7 1    
    13    6   77 1    
    14    6   78 1    
    15    7    8 1    
    16    8    9 1    
    17    8   79 1    
    18    8   80 1    
    19    9   10 ar   
    20    9   14 ar   
    21   10   11 ar   
    22   10   81 1    
    23   11   12 ar   
    24   11   71 1    
    25   12   13 ar   
    26   12   82 1    
    27   13   14 ar   
    28   13   15 1    
    29   14   83 1    
    30   15   16 1    
    31   15   84 1    
    32   15   85 1    
    33   16   17 1    
    34   17   18 1    
    35   17   86 1    
    36   17   87 1    
    37   18   19 1    
    38   18   37 1    
    39   18   88 1    
    40   19   20 am   BACKBONE|DICT|INTERRES
    41   19   89 1    
    42   20   21 2    
    43   20   22 1    
    44   22   23 1    
    45   22   24 1    
    46   22   90 1    
    47   23   91 1    
    48   23   92 1    
    49   23   93 1    
    50   24   25 am   BACKBONE|DICT|INTERRES
    51   24   94 1    
    52   25   26 2    
    53   25   27 1    
    54   27   28 1    
    55   27   29 1    
    56   27   95 1    
    57   28   96 1    
    58   28   97 1    
    59   28   98 1    
    60   29   30 am   BACKBONE|DICT|INTERRES
    61   29   99 1    
    62   30   31 2    
    63   30   32 1    
    64   32   33 1    
    65   32   34 1    
    66   32  100 1    
    67   33  101 1    
    68   33  102 1    
    69   33  103 1    
    70   34   35 am   BACKBONE|DICT|INTERRES
    71   34  104 1    
    72   35   36 2    
    73   37   38 2    
    74   37   39 am   BACKBONE|DICT|INTERRES
    75   39   40 1    
    76   39  105 1    
    77   40   41 1    
    78   40   42 1    
    79   40  106 1    
    80   41  107 1    
    81   41  108 1    
    82   41  109 1    
    83   42   43 2    
    84   42   44 am   BACKBONE|DICT|INTERRES
    85   44   45 1    
    86   44  110 1    
    87   45   46 1    
    88   45   47 1    
    89   45  111 1    
    90   46  112 1    
    91   46  113 1    
    92   46  114 1    
    93   47   48 2    
    94   47   49 am   BACKBONE|DICT|INTERRES
    95   49   50 1    
    96   49  115 1    
    97   50   51 1    
    98   50   52 1    
    99   50  116 1    
   100   51  117 1    
   101   51  118 1    
   102   51  119 1    
   103   52   53 2    
   104   52   54 am   BACKBONE|DICT|INTERRES
   105   54   55 1    
   106   54  120 1    
   107   55   56 1    
   108   55   57 1    
   109   55  121 1    
   110   56  122 1    
   111   56  123 1    
   112   56  124 1    
   113   57   58 2    
   114   57   59 am   BACKBONE|DICT|INTERRES
   115   59   60 1    
   116   59  125 1    
   117   60   61 1    
   118   60   62 1    
   119   60  126 1    
   120   61  127 1    
   121   61  128 1    
   122   61  129 1    
   123   62   63 2    
   124   62   64 am   BACKBONE|DICT|INTERRES
   125   64   65 1    
   126   64  130 1    
   127   65   66 1    
   128   65   69 1    
   129   65  131 1    
   130   66   67 am   BACKBONE|DICT|INTERRES
   131   66   68 2    
   132   67  132 1    
   133   67  133 1    
   134   69   70 1    
   135   69  134 1    
   136   69  135 1    
   137   70   71 1    
   138   71  136 1    
   139   71  137 1    
@<TRIPOS>SUBSTRUCTURE
     1 UNK         1 GROUP             0       ****    0 ROOT    
