@<TRIPOS>MOLECULE
3R137
137   139    1
SMALL
USER_CHARGES


@<TRIPOS>ATOM
      1 CA         28.7351    0.1114    1.3744 C.3       0 UNK        -0.2020 
      2 C          28.4760   -1.1995    2.1140 C.2       0 UNK         0.4855 
      3 O          28.4580   -1.2013    3.3431 O.2       0 UNK        -0.5197 
      4 N          28.2816   -2.3374    1.4307 N.am      1 UNK        -0.4892 
      5 CA         28.2241   -2.5097   -0.0286 C.3       1 UNK         0.0835 
      6 C6         28.2567   -4.0063   -0.4283 C.3       12 UNK        -0.0855 
      7 S7         29.8515   -4.7730    0.0290 S.3       12 UNK        -0.2931 
      8 C8         30.5199   -5.3298   -1.5794 C.3       12 UNK         0.0378 
      9 C9         30.5095   -4.2608   -2.6699 C.ar      12 UNK        -0.0802 
     10 C10        30.9355   -2.9527   -2.4095 C.ar      12 UNK        -0.0944 
     11 C11        30.8748   -1.9726   -3.4048 C.ar      12 UNK        -0.0787 
     12 C12        30.4149   -2.3162   -4.6775 C.ar      12 UNK        -0.0862 
     13 C13        30.0468   -3.6309   -4.9686 C.ar      12 UNK        -0.0733 
     14 C14        30.0789   -4.5955   -3.9584 C.ar      12 UNK        -0.0832 
     15 C15        29.6535   -4.0078   -6.3858 C.3       12 UNK         0.0240 
     16 S16        27.8626   -3.8430   -6.6471 S.3       12 UNK        -0.2522 
     17 C17        27.8198   -3.1590   -8.3416 C.3       12 UNK        -0.0967 
     18 CA         27.3031   -1.7024   -8.4025 C.3       5 UNK         0.0660 
     19 N          25.9208   -1.6055   -7.9269 N.am      5 UNK        -0.4015 
     20 C          25.1296   -0.5289   -8.0201 C.2       4 UNK         0.4946 
     21 O          25.4673    0.5196   -8.5700 O.2       4 UNK        -0.5353 
     22 CA         23.7505   -0.6109   -7.3435 C.3       4 UNK         0.0277 
     23 CB         22.6750   -0.9783   -8.3779 C.3       4 UNK        -0.1981 
     24 N          23.6735   -1.5381   -6.2047 N.am      4 UNK        -0.4209 
     25 C          24.4370   -1.4775   -5.1042 C.2       3 UNK         0.4942 
     26 O          25.3706   -0.6838   -4.9587 O.2       3 UNK        -0.5208 
     27 CA         24.1284   -2.4946   -4.0011 C.3       3 UNK         0.0250 
     28 CB         24.8689   -3.8194   -4.2505 C.3       3 UNK        -0.1990 
     29 N          24.5659   -1.9336   -2.7290 N.am      3 UNK        -0.4232 
     30 C          23.9307   -2.0267   -1.5584 C.2       2 UNK         0.4993 
     31 O          22.8962   -2.6759   -1.3904 O.2       2 UNK        -0.5286 
     32 CA         24.5792   -1.2790   -0.3756 C.3       2 UNK         0.0209 
     33 CB         23.6541   -1.1993    0.8536 C.3       2 UNK        -0.1931 
     34 N          25.8493   -1.8874    0.0302 N.am      2 UNK        -0.4546 
     35 C          27.0025   -1.8066   -0.6482 C.2       1 UNK         0.5154 
     36 O          27.1344   -1.1736   -1.6954 O.2       1 UNK        -0.5181 
     37 C          28.2699   -0.6974   -7.7313 C.2       5 UNK         0.5014 
     38 O          29.2900   -0.3593   -8.3345 O.2       5 UNK        -0.5248 
     39 N          27.9230   -0.1817   -6.5406 N.am      6 UNK        -0.4434 
     40 CA         28.6332    0.9197   -5.8832 C.3       6 UNK         0.0363 
     41 CB         28.0735    1.1169   -4.4666 C.3       6 UNK        -0.1936 
     42 C          28.5772    2.2387   -6.6765 C.2       6 UNK         0.5081 
     43 O          29.4840    3.0580   -6.5346 O.2       6 UNK        -0.5248 
     44 N          27.5410    2.4079   -7.5090 N.am      7 UNK        -0.4718 
     45 CA         27.4100    3.5051   -8.4630 C.3       7 UNK         0.0273 
     46 CB         25.9829    4.0756   -8.3997 C.3       7 UNK        -0.1935 
     47 C          27.7462    3.0174   -9.8785 C.2       7 UNK         0.5018 
     48 O          28.6182    3.5982  -10.5233 O.2       7 UNK        -0.5186 
     49 N          27.0700    1.9509  -10.3321 N.am      8 UNK        -0.4240 
     50 CA         27.1144    1.4462  -11.7095 C.3       8 UNK         0.0235 
     51 CB         26.0230    0.3809  -11.9036 C.3       8 UNK        -0.2000 
     52 C          28.4845    0.9120  -12.1599 C.2       8 UNK         0.4941 
     53 O          28.8185    1.0544  -13.3367 O.2       8 UNK        -0.5273 
     54 N          29.2558    0.3345  -11.2296 N.am      9 UNK        -0.4262 
     55 CA         30.6415   -0.0947  -11.4417 C.3       9 UNK         0.0264 
     56 CB         30.7613   -1.5970  -11.1231 C.3       9 UNK        -0.1955 
     57 C          31.6182    0.7414  -10.5942 C.2       9 UNK         0.5031 
     58 O          32.7875    0.3687  -10.4857 O.2       9 UNK        -0.5390 
     59 N          31.1269    1.8352   -9.9871 N.am      10 UNK        -0.4204 
     60 CA         31.8371    2.7909   -9.1277 C.3       10 UNK         0.0237 
     61 CB         32.7657    3.6735   -9.9885 C.3       10 UNK        -0.1985 
     62 C          32.5766    2.1609   -7.9264 C.2       10 UNK         0.4970 
     63 O          33.5540    2.7453   -7.4549 O.2       10 UNK        -0.4914 
     64 N          32.1258    0.9823   -7.4659 N.am      11 UNK        -0.4285 
     65 CA         32.8145    0.1517   -6.4612 C.3       11 UNK         0.1007 
     66 C          34.1852   -0.4246   -6.9490 C.2       11 UNK         0.5703 
     67 N          34.4478   -0.4974   -8.2499 N.am      11 UNK        -0.7361 
     68 O          35.0210   -0.8397   -6.1506 O.2       11 UNK        -0.4986 
     69 C69        32.8622    0.8509   -5.0669 C.3       12 UNK        -0.0947 
     70 S70        33.0357   -0.2785   -3.6397 S.3       12 UNK        -0.2240 
     71 C71        31.3167   -0.5487   -3.1077 C.3       12 UNK         0.0194 
     72 H72        29.4435   -0.0150    0.5569 H         1 UNK         0.0906 
     73 H73        27.8060    0.5192    0.9772 H         1 UNK         0.0906 
     74 H74        29.1563    0.8514    2.0548 H         1 UNK         0.0906 
     75 H75        28.1598   -3.1895    1.9599 H         1 UNK         0.3140 
     76 H76        29.1055   -2.0337   -0.4600 H         1 UNK         0.1085 
     77 H77        27.4525   -4.5572    0.0630 H         1 UNK         0.0836 
     78 H78        28.0867   -4.1274   -1.5001 H         1 UNK         0.0836 
     79 H79        29.9475   -6.2029   -1.8969 H         1 UNK         0.0731 
     80 H80        31.5454   -5.6714   -1.4338 H         1 UNK         0.0731 
     81 H81        31.2995   -2.6940   -1.4247 H         1 UNK         0.1312 
     82 H82        30.3612   -1.5670   -5.4519 H         1 UNK         0.1406 
     83 H83        29.7748   -5.6094   -4.1816 H         1 UNK         0.1631 
     84 H84        29.9534   -5.0337   -6.6050 H         1 UNK         0.0717 
     85 H85        30.2052   -3.3759   -7.0833 H         1 UNK         0.0717 
     86 H86        28.7986   -3.2361   -8.8181 H         1 UNK         0.0934 
     87 H87        27.1686   -3.7994   -8.9389 H         1 UNK         0.0934 
     88 H88        27.2811   -1.4235   -9.4566 H         1 UNK         0.0739 
     89 H89        25.5698   -2.4127   -7.4331 H         1 UNK         0.3093 
     90 H90        23.5286    0.3875   -6.9611 H         1 UNK         0.0818 
     91 H91        21.6745   -0.9244   -7.9483 H         1 UNK         0.0819 
     92 H92        22.6972   -0.2911   -9.2253 H         1 UNK         0.0819 
     93 H93        22.8191   -1.9853   -8.7717 H         1 UNK         0.0819 
     94 H94        22.9420   -2.2341   -6.2445 H         1 UNK         0.3041 
     95 H95        23.0508   -2.6714   -3.9823 H         1 UNK         0.0784 
     96 H96        24.5944   -4.2536   -5.2126 H         1 UNK         0.0793 
     97 H97        25.9510   -3.6794   -4.2494 H         1 UNK         0.0793 
     98 H98        24.6292   -4.5551   -3.4826 H         1 UNK         0.0793 
     99 H99        25.4226   -1.3865   -2.7766 H         1 UNK         0.3024 
    100 H100       24.7744   -0.2568   -0.7093 H         1 UNK         0.1171 
    101 H101       24.1006   -0.6009    1.6480 H         1 UNK         0.0786 
    102 H102       22.7020   -0.7332    0.5960 H         1 UNK         0.0786 
    103 H103       23.4342   -2.1871    1.2605 H         1 UNK         0.0786 
    104 H104       25.8377   -2.4269    0.8840 H         1 UNK         0.2977 
    105 H105       27.0674   -0.4964   -6.0912 H         1 UNK         0.3127 
    106 H106       29.6839    0.6394   -5.8016 H         1 UNK         0.0770 
    107 H107       27.0300    1.4331   -4.4863 H         1 UNK         0.0814 
    108 H108       28.1308    0.1964   -3.8849 H         1 UNK         0.0814 
    109 H109       28.6356    1.8798   -3.9268 H         1 UNK         0.0814 
    110 H110       26.8485    1.6700   -7.5789 H         1 UNK         0.2983 
    111 H111       28.1038    4.3120   -8.2157 H         1 UNK         0.0947 
    112 H112       25.7684    4.4869   -7.4132 H         1 UNK         0.0806 
    113 H113       25.2270    3.3192   -8.6149 H         1 UNK         0.0806 
    114 H114       25.8530    4.8829   -9.1218 H         1 UNK         0.0806 
    115 H115       26.3958    1.5030   -9.7112 H         1 UNK         0.3000 
    116 H116       26.8749    2.2885  -12.3624 H         1 UNK         0.0850 
    117 H117       25.9977    0.0320  -12.9369 H         1 UNK         0.0810 
    118 H118       25.0347    0.7795  -11.6732 H         1 UNK         0.0810 
    119 H119       26.1856   -0.4905  -11.2706 H         1 UNK         0.0810 
    120 H120       28.9172    0.2495  -10.2773 H         1 UNK         0.3040 
    121 H121       30.9346    0.0516  -12.4831 H         1 UNK         0.0766 
    122 H122       30.5885   -1.8059  -10.0677 H         1 UNK         0.0812 
    123 H123       31.7575   -1.9687  -11.3661 H         1 UNK         0.0812 
    124 H124       30.0487   -2.1834  -11.7031 H         1 UNK         0.0812 
    125 H125       30.1636    2.0797  -10.1809 H         1 UNK         0.3205 
    126 H126       31.0710    3.4394   -8.7011 H         1 UNK         0.0754 
    127 H127       33.1993    4.4833   -9.4004 H         1 UNK         0.0769 
    128 H128       32.2213    4.1333  -10.8135 H         1 UNK         0.0769 
    129 H129       33.5902    3.0971  -10.4099 H         1 UNK         0.0769 
    130 H130       31.3189    0.5643   -7.9129 H         1 UNK         0.2981 
    131 H131       32.1829   -0.7281   -6.3637 H         1 UNK         0.0541 
    132 H132       33.7878   -0.1605   -8.9460 H         1 UNK         0.3459 
    133 H133       35.3310   -0.8789   -8.5475 H         1 UNK         0.3459 
    134 H134       31.9653    1.4534   -4.9171 H         1 UNK         0.0612 
    135 H135       33.6910    1.5595   -5.0314 H         1 UNK         0.0612 
    136 H136       30.6449    0.1614   -3.5874 H         1 UNK         0.0624 
    137 H137       31.2478   -0.3503   -2.0371 H         1 UNK         0.0624 
@<TRIPOS>BOND
     1    1    2 1    
     2    1   72 1    
     3    1   73 1    
     4    1   74 1    
     5    2    3 2    
     6    2    4 am   BACKBONE|DICT|INTERRES
     7    4    5 1    
     8    4   75 1    
     9    5    6 1    
    10    5   35 1    
    11    5   76 1    
    12    6    7 1    
    13    6   77 1    
    14    6   78 1    
    15    7    8 1    
    16    8    9 1    
    17    8   79 1    
    18    8   80 1    
    19    9   10 ar   
    20    9   14 ar   
    21   10   11 ar   
    22   10   81 1    
    23   11   12 ar   
    24   11   71 1    
    25   12   13 ar   
    26   12   82 1    
    27   13   14 ar   
    28   13   15 1    
    29   14   83 1    
    30   15   16 1    
    31   15   84 1    
    32   15   85 1    
    33   16   17 1    
    34   17   18 1    
    35   17   86 1    
    36   17   87 1    
    37   18   19 1    
    38   18   37 1    
    39   18   88 1    
    40   19   20 am   BACKBONE|DICT|INTERRES
    41   19   89 1    
    42   20   21 2    
    43   20   22 1    
    44   22   23 1    
    45   22   24 1    
    46   22   90 1    
    47   23   91 1    
    48   23   92 1    
    49   23   93 1    
    50   24   25 am   BACKBONE|DICT|INTERRES
    51   24   94 1    
    52   25   26 2    
    53   25   27 1    
    54   27   28 1    
    55   27   29 1    
    56   27   95 1    
    57   28   96 1    
    58   28   97 1    
    59   28   98 1    
    60   29   30 am   BACKBONE|DICT|INTERRES
    61   29   99 1    
    62   30   31 2    
    63   30   32 1    
    64   32   33 1    
    65   32   34 1    
    66   32  100 1    
    67   33  101 1    
    68   33  102 1    
    69   33  103 1    
    70   34   35 am   BACKBONE|DICT|INTERRES
    71   34  104 1    
    72   35   36 2    
    73   37   38 2    
    74   37   39 am   BACKBONE|DICT|INTERRES
    75   39   40 1    
    76   39  105 1    
    77   40   41 1    
    78   40   42 1    
    79   40  106 1    
    80   41  107 1    
    81   41  108 1    
    82   41  109 1    
    83   42   43 2    
    84   42   44 am   BACKBONE|DICT|INTERRES
    85   44   45 1    
    86   44  110 1    
    87   45   46 1    
    88   45   47 1    
    89   45  111 1    
    90   46  112 1    
    91   46  113 1    
    92   46  114 1    
    93   47   48 2    
    94   47   49 am   BACKBONE|DICT|INTERRES
    95   49   50 1    
    96   49  115 1    
    97   50   51 1    
    98   50   52 1    
    99   50  116 1    
   100   51  117 1    
   101   51  118 1    
   102   51  119 1    
   103   52   53 2    
   104   52   54 am   BACKBONE|DICT|INTERRES
   105   54   55 1    
   106   54  120 1    
   107   55   56 1    
   108   55   57 1    
   109   55  121 1    
   110   56  122 1    
   111   56  123 1    
   112   56  124 1    
   113   57   58 2    
   114   57   59 am   BACKBONE|DICT|INTERRES
   115   59   60 1    
   116   59  125 1    
   117   60   61 1    
   118   60   62 1    
   119   60  126 1    
   120   61  127 1    
   121   61  128 1    
   122   61  129 1    
   123   62   63 2    
   124   62   64 am   BACKBONE|DICT|INTERRES
   125   64   65 1    
   126   64  130 1    
   127   65   66 1    
   128   65   69 1    
   129   65  131 1    
   130   66   67 am   BACKBONE|DICT|INTERRES
   131   66   68 2    
   132   67  132 1    
   133   67  133 1    
   134   69   70 1    
   135   69  134 1    
   136   69  135 1    
   137   70   71 1    
   138   71  136 1    
   139   71  137 1    
@<TRIPOS>SUBSTRUCTURE
     1 UNK         1 GROUP             0       ****    0 ROOT    
