@<TRIPOS>MOLECULE
3R137
137   139    1
SMALL
USER_CHARGES


@<TRIPOS>ATOM
      1 CA         24.0396   -6.0187   -1.8475 C.3       0 UNK        -0.2020 
      2 C          24.8036   -4.8010   -1.3516 C.2       0 UNK         0.4855 
      3 O          24.1915   -3.8698   -0.8271 O.2       0 UNK        -0.5197 
      4 N          26.1345   -4.7931   -1.5161 N.am      1 UNK        -0.4892 
      5 CA         27.0178   -3.6896   -1.1213 C.3       1 UNK         0.0835 
      6 C6         28.5141   -4.0721   -1.2494 C.3       12 UNK        -0.0855 
      7 S7         29.5523   -3.1083   -0.0998 S.3       12 UNK        -0.2931 
      8 C8         31.2001   -3.2363   -0.8798 C.3       12 UNK         0.0378 
      9 C9         31.3195   -2.5203   -2.2242 C.ar      12 UNK        -0.0802 
     10 C10        32.0963   -3.0876   -3.2421 C.ar      12 UNK        -0.0944 
     11 C11        32.2244   -2.4511   -4.4813 C.ar      12 UNK        -0.0787 
     12 C12        31.5720   -1.2377   -4.6988 C.ar      12 UNK        -0.0862 
     13 C13        30.7937   -0.6604   -3.6942 C.ar      12 UNK        -0.0733 
     14 C14        30.6808   -1.2957   -2.4560 C.ar      12 UNK        -0.0832 
     15 C15        30.0501    0.6345   -3.9671 C.3       12 UNK         0.0240 
     16 S16        28.3331    0.3279   -4.4903 S.3       12 UNK        -0.2522 
     17 C17        28.5406   -0.8380   -5.8815 C.3       12 UNK        -0.0967 
     18 CA         27.2583   -1.1298   -6.6937 C.3       5 UNK         0.0660 
     19 N          26.3145   -1.9835   -5.9673 N.am      5 UNK        -0.4015 
     20 C          25.4011   -2.7575   -6.5736 C.2       4 UNK         0.4946 
     21 O          25.2286   -2.7896   -7.7929 O.2       4 UNK        -0.5353 
     22 CA         24.5432   -3.6617   -5.6800 C.3       4 UNK         0.0277 
     23 CB         25.3400   -4.8950   -5.2226 C.3       4 UNK        -0.1981 
     24 N          24.0310   -2.9323   -4.5219 N.am      4 UNK        -0.4209 
     25 C          22.9040   -2.2061   -4.5325 C.2       3 UNK         0.4942 
     26 O          22.1466   -2.1319   -5.5006 O.2       3 UNK        -0.5208 
     27 CA         22.5484   -1.4295   -3.2527 C.3       3 UNK         0.0250 
     28 CB         21.5146   -2.2057   -2.4210 C.3       3 UNK        -0.1990 
     29 N          23.7123   -1.1219   -2.4190 N.am      3 UNK        -0.4232 
     30 C          24.6458   -0.2126   -2.7361 C.2       2 UNK         0.4993 
     31 O          24.6209    0.4639   -3.7650 O.2       2 UNK        -0.5286 
     32 CA         25.8290   -0.0695   -1.7616 C.3       2 UNK         0.0209 
     33 CB         25.4688    0.8897   -0.6161 C.3       2 UNK        -0.1931 
     34 N          26.2984   -1.3430   -1.2031 N.am      2 UNK        -0.4546 
     35 C          26.6725   -2.4147   -1.9174 C.2       1 UNK         0.5154 
     36 O          26.6854   -2.4514   -3.1509 O.2       1 UNK        -0.5181 
     37 C          26.6102    0.1402   -7.2812 C.2       5 UNK         0.5014 
     38 O          27.0852    0.6107   -8.3165 O.2       5 UNK        -0.5248 
     39 N          25.5557    0.6632   -6.6309 N.am      6 UNK        -0.4434 
     40 CA         24.7250    1.8044   -7.0354 C.3       6 UNK         0.0363 
     41 CB         23.8378    1.4223   -8.2406 C.3       6 UNK        -0.1936 
     42 C          25.5421    3.0910   -7.2640 C.2       6 UNK         0.5081 
     43 O          25.7816    3.8348   -6.3131 O.2       6 UNK        -0.5248 
     44 N          25.9725    3.3182   -8.5131 N.am      7 UNK        -0.4718 
     45 CA         26.8578    4.4111   -8.9305 C.3       7 UNK         0.0273 
     46 CB         26.7909    4.5405  -10.4619 C.3       7 UNK        -0.1935 
     47 C          28.3201    4.2450   -8.4657 C.2       7 UNK         0.5018 
     48 O          29.1013    5.1831   -8.6222 O.2       7 UNK        -0.5186 
     49 N          28.6622    3.0637   -7.9287 N.am      8 UNK        -0.4240 
     50 CA         29.9529    2.6468   -7.3628 C.3       8 UNK         0.0235 
     51 CB         30.4904    3.6459   -6.3157 C.3       8 UNK        -0.2000 
     52 C          31.0160    2.2559   -8.4025 C.2       8 UNK         0.4941 
     53 O          32.1254    1.8866   -8.0130 O.2       8 UNK        -0.5273 
     54 N          30.6535    2.2754   -9.6939 N.am      9 UNK        -0.4262 
     55 CA         31.5154    1.9569  -10.8388 C.3       9 UNK         0.0264 
     56 CB         30.7237    2.1692  -12.1392 C.3       9 UNK        -0.1955 
     57 C          32.1323    0.5461  -10.8086 C.2       9 UNK         0.5031 
     58 O          33.2159    0.3560  -11.3622 O.2       9 UNK        -0.5390 
     59 N          31.4658   -0.3984  -10.1279 N.am      10 UNK        -0.4204 
     60 CA         31.9160   -1.7754   -9.8948 C.3       10 UNK         0.0237 
     61 CB         30.8333   -2.5252   -9.0994 C.3       10 UNK        -0.1985 
     62 C          33.2792   -1.8955   -9.1830 C.2       10 UNK         0.4970 
     63 O          33.9743   -2.8889   -9.3979 O.2       10 UNK        -0.4914 
     64 N          33.6318   -0.8950   -8.3662 N.am      11 UNK        -0.4285 
     65 CA         34.9340   -0.7547   -7.6966 C.3       11 UNK         0.1007 
     66 C          35.6740    0.5418   -8.1468 C.2       11 UNK         0.5703 
     67 N          35.3277    1.1482   -9.2778 N.am      11 UNK        -0.7361 
     68 O          36.6031    0.9961   -7.4831 O.2       11 UNK        -0.4986 
     69 C69        34.7919   -0.8884   -6.1509 C.3       12 UNK        -0.0947 
     70 S70        34.7810   -2.6271   -5.5866 S.3       12 UNK        -0.2240 
     71 C71        33.0212   -3.0932   -5.6063 C.3       12 UNK         0.0194 
     72 H72        23.5363   -6.5084   -1.0144 H         1 UNK         0.0906 
     73 H73        23.2828   -5.7164   -2.5711 H         1 UNK         0.0906 
     74 H74        24.6954   -6.7472   -2.3237 H         1 UNK         0.0906 
     75 H75        26.5836   -5.5740   -1.9730 H         1 UNK         0.3140 
     76 H76        26.8050   -3.5050   -0.0656 H         1 UNK         0.1085 
     77 H77        28.8695   -3.9584   -2.2761 H         1 UNK         0.0836 
     78 H78        28.6594   -5.1237   -0.9967 H         1 UNK         0.0836 
     79 H79        31.4491   -4.2934   -0.9863 H         1 UNK         0.0731 
     80 H80        31.9397   -2.8127   -0.1993 H         1 UNK         0.0731 
     81 H81        32.5977   -4.0313   -3.0750 H         1 UNK         0.1312 
     82 H82        31.6496   -0.7521   -5.6617 H         1 UNK         0.1406 
     83 H83        30.0761   -0.8431   -1.6822 H         1 UNK         0.1631 
     84 H84        30.5718    1.2114   -4.7292 H         1 UNK         0.0717 
     85 H85        30.0411    1.2556   -3.0703 H         1 UNK         0.0717 
     86 H86        29.3170   -0.4628   -6.5476 H         1 UNK         0.0934 
     87 H87        28.9266   -1.7780   -5.4835 H         1 UNK         0.0934 
     88 H88        27.5882   -1.7103   -7.5588 H         1 UNK         0.0739 
     89 H89        26.4283   -2.0354   -4.9564 H         1 UNK         0.3093 
     90 H90        23.7028   -4.0193   -6.2796 H         1 UNK         0.0818 
     91 H91        26.1808   -4.6290   -4.5818 H         1 UNK         0.0819 
     92 H92        24.7063   -5.5930   -4.6774 H         1 UNK         0.0819 
     93 H93        25.7449   -5.4346   -6.0798 H         1 UNK         0.0819 
     94 H94        24.6335   -2.8859   -3.7099 H         1 UNK         0.3041 
     95 H95        22.0950   -0.4847   -3.5608 H         1 UNK         0.0784 
     96 H96        20.6123   -2.3985   -3.0030 H         1 UNK         0.0793 
     97 H97        21.9008   -3.1711   -2.0924 H         1 UNK         0.0793 
     98 H98        21.2141   -1.6449   -1.5358 H         1 UNK         0.0793 
     99 H99        23.8354   -1.6790   -1.5819 H         1 UNK         0.3024 
    100 H100       26.6565    0.3718   -2.3139 H         1 UNK         0.1171 
    101 H101       26.3296    1.0851    0.0236 H         1 UNK         0.0786 
    102 H102       25.1329    1.8521   -1.0053 H         1 UNK         0.0786 
    103 H103       24.6676    0.4929    0.0087 H         1 UNK         0.0786 
    104 H104       26.3017   -1.4129   -0.1956 H         1 UNK         0.2977 
    105 H105       25.3140    0.2705   -5.7259 H         1 UNK         0.3127 
    106 H106       24.0608    2.0098   -6.1941 H         1 UNK         0.0770 
    107 H107       24.4203    1.0880   -9.0995 H         1 UNK         0.0814 
    108 H108       23.2271    2.2670   -8.5626 H         1 UNK         0.0814 
    109 H109       23.1545    0.6147   -7.9771 H         1 UNK         0.0814 
    110 H110       25.7630    2.6175   -9.2107 H         1 UNK         0.2983 
    111 H111       26.4860    5.3383   -8.4889 H         1 UNK         0.0947 
    112 H112       27.4070    5.3696  -10.8130 H         1 UNK         0.0806 
    113 H113       25.7724    4.7333  -10.7996 H         1 UNK         0.0806 
    114 H114       27.1453    3.6373  -10.9604 H         1 UNK         0.0806 
    115 H115       27.9466    2.3412   -7.9341 H         1 UNK         0.3000 
    116 H116       29.7300    1.7257   -6.8316 H         1 UNK         0.0850 
    117 H117       31.3648    3.2435   -5.8030 H         1 UNK         0.0810 
    118 H118       29.7409    3.8637   -5.5548 H         1 UNK         0.0810 
    119 H119       30.7982    4.5885   -6.7680 H         1 UNK         0.0810 
    120 H120       29.7154    2.5809   -9.9070 H         1 UNK         0.3040 
    121 H121       32.3445    2.6675  -10.8232 H         1 UNK         0.0766 
    122 H122       30.3716    3.1972  -12.2274 H         1 UNK         0.0812 
    123 H123       29.8567    1.5098  -12.1971 H         1 UNK         0.0812 
    124 H124       31.3457    1.9669  -13.0125 H         1 UNK         0.0812 
    125 H125       30.5803   -0.1379   -9.7198 H         1 UNK         0.3205 
    126 H126       32.0192   -2.2524  -10.8716 H         1 UNK         0.0754 
    127 H127       31.1230   -3.5631   -8.9276 H         1 UNK         0.0769 
    128 H128       29.8843   -2.5419   -9.6359 H         1 UNK         0.0769 
    129 H129       30.6600   -2.0705   -8.1233 H         1 UNK         0.0769 
    130 H130       33.0215   -0.0897   -8.2814 H         1 UNK         0.2981 
    131 H131       35.6032   -1.5474   -8.0349 H         1 UNK         0.0541 
    132 H132       35.8239    1.9796   -9.5555 H         1 UNK         0.3459 
    133 H133       34.6066    0.7686   -9.8787 H         1 UNK         0.3459 
    134 H134       35.6396   -0.4330   -5.6372 H         1 UNK         0.0612 
    135 H135       33.9177   -0.3510   -5.7869 H         1 UNK         0.0612 
    136 H136       32.9539   -4.1790   -5.5245 H         1 UNK         0.0624 
    137 H137       32.5824   -2.8421   -6.5704 H         1 UNK         0.0624 
@<TRIPOS>BOND
     1    1    2 1    
     2    1   72 1    
     3    1   73 1    
     4    1   74 1    
     5    2    3 2    
     6    2    4 am   BACKBONE|DICT|INTERRES
     7    4    5 1    
     8    4   75 1    
     9    5    6 1    
    10    5   35 1    
    11    5   76 1    
    12    6    7 1    
    13    6   77 1    
    14    6   78 1    
    15    7    8 1    
    16    8    9 1    
    17    8   79 1    
    18    8   80 1    
    19    9   10 ar   
    20    9   14 ar   
    21   10   11 ar   
    22   10   81 1    
    23   11   12 ar   
    24   11   71 1    
    25   12   13 ar   
    26   12   82 1    
    27   13   14 ar   
    28   13   15 1    
    29   14   83 1    
    30   15   16 1    
    31   15   84 1    
    32   15   85 1    
    33   16   17 1    
    34   17   18 1    
    35   17   86 1    
    36   17   87 1    
    37   18   19 1    
    38   18   37 1    
    39   18   88 1    
    40   19   20 am   BACKBONE|DICT|INTERRES
    41   19   89 1    
    42   20   21 2    
    43   20   22 1    
    44   22   23 1    
    45   22   24 1    
    46   22   90 1    
    47   23   91 1    
    48   23   92 1    
    49   23   93 1    
    50   24   25 am   BACKBONE|DICT|INTERRES
    51   24   94 1    
    52   25   26 2    
    53   25   27 1    
    54   27   28 1    
    55   27   29 1    
    56   27   95 1    
    57   28   96 1    
    58   28   97 1    
    59   28   98 1    
    60   29   30 am   BACKBONE|DICT|INTERRES
    61   29   99 1    
    62   30   31 2    
    63   30   32 1    
    64   32   33 1    
    65   32   34 1    
    66   32  100 1    
    67   33  101 1    
    68   33  102 1    
    69   33  103 1    
    70   34   35 am   BACKBONE|DICT|INTERRES
    71   34  104 1    
    72   35   36 2    
    73   37   38 2    
    74   37   39 am   BACKBONE|DICT|INTERRES
    75   39   40 1    
    76   39  105 1    
    77   40   41 1    
    78   40   42 1    
    79   40  106 1    
    80   41  107 1    
    81   41  108 1    
    82   41  109 1    
    83   42   43 2    
    84   42   44 am   BACKBONE|DICT|INTERRES
    85   44   45 1    
    86   44  110 1    
    87   45   46 1    
    88   45   47 1    
    89   45  111 1    
    90   46  112 1    
    91   46  113 1    
    92   46  114 1    
    93   47   48 2    
    94   47   49 am   BACKBONE|DICT|INTERRES
    95   49   50 1    
    96   49  115 1    
    97   50   51 1    
    98   50   52 1    
    99   50  116 1    
   100   51  117 1    
   101   51  118 1    
   102   51  119 1    
   103   52   53 2    
   104   52   54 am   BACKBONE|DICT|INTERRES
   105   54   55 1    
   106   54  120 1    
   107   55   56 1    
   108   55   57 1    
   109   55  121 1    
   110   56  122 1    
   111   56  123 1    
   112   56  124 1    
   113   57   58 2    
   114   57   59 am   BACKBONE|DICT|INTERRES
   115   59   60 1    
   116   59  125 1    
   117   60   61 1    
   118   60   62 1    
   119   60  126 1    
   120   61  127 1    
   121   61  128 1    
   122   61  129 1    
   123   62   63 2    
   124   62   64 am   BACKBONE|DICT|INTERRES
   125   64   65 1    
   126   64  130 1    
   127   65   66 1    
   128   65   69 1    
   129   65  131 1    
   130   66   67 am   BACKBONE|DICT|INTERRES
   131   66   68 2    
   132   67  132 1    
   133   67  133 1    
   134   69   70 1    
   135   69  134 1    
   136   69  135 1    
   137   70   71 1    
   138   71  136 1    
   139   71  137 1    
@<TRIPOS>SUBSTRUCTURE
     1 UNK         1 GROUP             0       ****    0 ROOT    
