@<TRIPOS>MOLECULE
3R137
137   139    1
SMALL
USER_CHARGES


@<TRIPOS>ATOM
      1 CA         25.4989   -6.4458    1.7576 C.3       0 UNK        -0.2020 
      2 C          26.5211   -5.3190    1.7736 C.2       0 UNK         0.4855 
      3 O          27.0162   -4.9545    2.8406 O.2       0 UNK        -0.5197 
      4 N          26.8367   -4.7625    0.6018 N.am      1 UNK        -0.4892 
      5 CA         27.7864   -3.6687    0.4072 C.3       1 UNK         0.0835 
      6 C6         29.2665   -4.1415    0.3952 C.3       12 UNK        -0.0855 
      7 S7         29.6178   -5.5052   -0.7743 S.3       12 UNK        -0.2931 
      8 C8         31.0632   -4.8751   -1.6858 C.3       12 UNK         0.0378 
      9 C9         30.7255   -3.7222   -2.6232 C.ar      12 UNK        -0.0802 
     10 C10        31.3340   -2.4747   -2.4505 C.ar      12 UNK        -0.0944 
     11 C11        31.0898   -1.4337   -3.3512 C.ar      12 UNK        -0.0787 
     12 C12        30.2070   -1.6389   -4.4156 C.ar      12 UNK        -0.0862 
     13 C13        29.5938   -2.8805   -4.6005 C.ar      12 UNK        -0.0733 
     14 C14        29.8546   -3.9183   -3.7008 C.ar      12 UNK        -0.0832 
     15 C15        28.6843   -3.1053   -5.7970 C.3       12 UNK         0.0240 
     16 S16        26.9503   -2.7391   -5.3963 S.3       12 UNK        -0.2522 
     17 C17        26.2281   -2.6785   -7.0758 C.3       12 UNK        -0.0967 
     18 CA         25.8396   -1.2501   -7.5328 C.3       5 UNK         0.0660 
     19 N          24.8619   -0.6442   -6.6215 N.am      5 UNK        -0.4015 
     20 C          24.2826    0.5577   -6.7327 C.2       4 UNK         0.4946 
     21 O          24.5247    1.3416   -7.6506 O.2       4 UNK        -0.5353 
     22 CA         23.3055    0.9930   -5.6223 C.3       4 UNK         0.0277 
     23 CB         21.8451    0.8883   -6.1037 C.3       4 UNK        -0.1981 
     24 N          23.4921    0.3283   -4.3201 N.am      4 UNK        -0.4209 
     25 C          23.2906   -0.9552   -3.9896 C.2       3 UNK         0.4942 
     26 O          22.9397   -1.8220   -4.7911 O.2       3 UNK        -0.5208 
     27 CA         23.6163   -1.3391   -2.5364 C.3       3 UNK         0.0250 
     28 CB         22.9959   -2.6887   -2.1304 C.3       3 UNK        -0.1990 
     29 N          25.0626   -1.4097   -2.3342 N.am      3 UNK        -0.4232 
     30 C          25.8935   -0.3701   -2.2066 C.2       2 UNK         0.4993 
     31 O          25.5071    0.8010   -2.2254 O.2       2 UNK        -0.5286 
     32 CA         27.3941   -0.6924   -2.0264 C.3       2 UNK         0.0209 
     33 CB         28.2383    0.5803   -1.8249 C.3       2 UNK        -0.1931 
     34 N          27.6737   -1.6103   -0.9152 N.am      2 UNK        -0.4546 
     35 C          27.3852   -2.9182   -0.8723 C.2       1 UNK         0.5154 
     36 O          26.8031   -3.5247   -1.7773 O.2       1 UNK        -0.5181 
     37 C          27.0849   -0.3761   -7.7993 C.2       5 UNK         0.5014 
     38 O          27.6446   -0.4435   -8.8938 O.2       5 UNK        -0.5248 
     39 N          27.4661    0.4654   -6.8268 N.am      6 UNK        -0.4434 
     40 CA         28.5430    1.4564   -6.9188 C.3       6 UNK         0.0363 
     41 CB         28.7626    2.0821   -5.5322 C.3       6 UNK        -0.1936 
     42 C          28.3248    2.5522   -7.9840 C.2       6 UNK         0.5081 
     43 O          29.2737    3.2666   -8.3041 O.2       6 UNK        -0.5248 
     44 N          27.1054    2.6741   -8.5296 N.am      7 UNK        -0.4718 
     45 CA         26.8185    3.5102   -9.6977 C.3       7 UNK         0.0273 
     46 CB         25.3051    3.7676   -9.7759 C.3       7 UNK        -0.1935 
     47 C          27.3257    2.8935  -11.0171 C.2       7 UNK         0.5018 
     48 O          27.5076    3.6351  -11.9838 O.2       7 UNK        -0.5186 
     49 N          27.5241    1.5671  -11.0467 N.am      8 UNK        -0.4240 
     50 CA         27.9701    0.8088  -12.2176 C.3       8 UNK         0.0235 
     51 CB         26.9625   -0.3185  -12.5007 C.3       8 UNK        -0.2000 
     52 C          29.3790    0.2296  -12.0212 C.2       8 UNK         0.4941 
     53 O          30.1794    0.2697  -12.9571 O.2       8 UNK        -0.5273 
     54 N          29.6563   -0.3136  -10.8281 N.am      9 UNK        -0.4262 
     55 CA         30.9433   -0.8995  -10.4498 C.3       9 UNK         0.0264 
     56 CB         30.7550   -1.6997   -9.1484 C.3       9 UNK        -0.1955 
     57 C          32.0322    0.1685  -10.2588 C.2       9 UNK         0.5031 
     58 O          31.7211    1.3095   -9.9119 O.2       9 UNK        -0.5390 
     59 N          33.3008   -0.2422  -10.4045 N.am      10 UNK        -0.4204 
     60 CA         34.4911    0.5941  -10.1802 C.3       10 UNK         0.0237 
     61 CB         35.7476   -0.1916  -10.5899 C.3       10 UNK        -0.1985 
     62 C          34.6309    1.1207   -8.7367 C.2       10 UNK         0.4970 
     63 O          35.2739    2.1496   -8.5268 O.2       10 UNK        -0.4914 
     64 N          34.0065    0.4196   -7.7827 N.am      11 UNK        -0.4285 
     65 CA         33.7956    0.8501   -6.3944 C.3       11 UNK         0.1007 
     66 C          32.8389    2.0757   -6.2454 C.2       11 UNK         0.5703 
     67 N          32.0469    2.4304   -7.2501 N.am      11 UNK        -0.7361 
     68 O          32.8272    2.7296   -5.2061 O.2       11 UNK        -0.4986 
     69 C69        33.3288   -0.3660   -5.5518 C.3       12 UNK        -0.0947 
     70 S70        33.5308   -0.1697   -3.7487 S.3       12 UNK        -0.2240 
     71 C71        31.7991   -0.0961   -3.1846 C.3       12 UNK         0.0194 
     72 H72        25.1465   -6.6620    0.7492 H         1 UNK         0.0906 
     73 H73        25.9380   -7.3559    2.1652 H         1 UNK         0.0906 
     74 H74        24.6367   -6.1796    2.3685 H         1 UNK         0.0906 
     75 H75        26.3961   -5.0643   -0.2595 H         1 UNK         0.3140 
     76 H76        27.6598   -2.9678    1.2357 H         1 UNK         0.1085 
     77 H77        29.9309   -3.2991    0.1948 H         1 UNK         0.0836 
     78 H78        29.5380   -4.4906    1.3926 H         1 UNK         0.0836 
     79 H79        31.8370   -4.5880   -0.9720 H         1 UNK         0.0731 
     80 H80        31.4840   -5.6906   -2.2757 H         1 UNK         0.0731 
     81 H81        32.0244   -2.3187   -1.6328 H         1 UNK         0.1312 
     82 H82        30.0129   -0.8401   -5.1172 H         1 UNK         0.1406 
     83 H83        29.3864   -4.8831   -3.8419 H         1 UNK         0.1631 
     84 H84        28.7639   -4.1366   -6.1443 H         1 UNK         0.0717 
     85 H85        29.0094   -2.4762   -6.6269 H         1 UNK         0.0717 
     86 H86        26.9052   -3.1423   -7.7963 H         1 UNK         0.0934 
     87 H87        25.3388   -3.3109   -7.0734 H         1 UNK         0.0934 
     88 H88        25.3319   -1.3435   -8.4949 H         1 UNK         0.0739 
     89 H89        24.5363   -1.2378   -5.8664 H         1 UNK         0.3093 
     90 H90        23.5130    2.0487   -5.4402 H         1 UNK         0.0818 
     91 H91        21.1513    1.2637   -5.3517 H         1 UNK         0.0819 
     92 H92        21.6917    1.4782   -7.0085 H         1 UNK         0.0819 
     93 H93        21.5638   -0.1388   -6.3380 H         1 UNK         0.0819 
     94 H94        23.8978    0.9124   -3.5949 H         1 UNK         0.3041 
     95 H95        23.2019   -0.5684   -1.8827 H         1 UNK         0.0784 
     96 H96        21.9149   -2.6817   -2.2768 H         1 UNK         0.0793 
     97 H97        23.4007   -3.5138   -2.7183 H         1 UNK         0.0793 
     98 H98        23.1794   -2.9079   -1.0784 H         1 UNK         0.0793 
     99 H99        25.4819   -2.3374   -2.3154 H         1 UNK         0.3024 
    100 H100       27.7250   -1.1724   -2.9492 H         1 UNK         0.1171 
    101 H101       29.3011    0.3488   -1.7758 H         1 UNK         0.0786 
    102 H102       28.0971    1.2829   -2.6461 H         1 UNK         0.0786 
    103 H103       27.9671    1.1010   -0.9058 H         1 UNK         0.0786 
    104 H104       28.1240   -1.1944   -0.1127 H         1 UNK         0.2977 
    105 H105       26.9355    0.4552   -5.9687 H         1 UNK         0.3127 
    106 H106       29.4544    0.9257   -7.2008 H         1 UNK         0.0770 
    107 H107       27.8682    2.5922   -5.1724 H         1 UNK         0.0814 
    108 H108       29.5692    2.8161   -5.5549 H         1 UNK         0.0814 
    109 H109       29.0416    1.3279   -4.7985 H         1 UNK         0.0814 
    110 H110       26.3446    2.0931   -8.1894 H         1 UNK         0.2983 
    111 H111       27.3206    4.4720   -9.5703 H         1 UNK         0.0947 
    112 H112       25.0656    4.4403  -10.6005 H         1 UNK         0.0806 
    113 H113       24.9322    4.2292   -8.8614 H         1 UNK         0.0806 
    114 H114       24.7469    2.8442   -9.9362 H         1 UNK         0.0806 
    115 H115       27.3913    1.0376  -10.1915 H         1 UNK         0.3000 
    116 H116       28.0048    1.4545  -13.0978 H         1 UNK         0.0850 
    117 H117       27.2684   -0.9079  -13.3661 H         1 UNK         0.0810 
    118 H118       25.9721    0.0829  -12.7159 H         1 UNK         0.0810 
    119 H119       26.8695   -1.0018  -11.6553 H         1 UNK         0.0810 
    120 H120       28.9340   -0.3183  -10.1103 H         1 UNK         0.3040 
    121 H121       31.2537   -1.5815  -11.2443 H         1 UNK         0.0766 
    122 H122       30.4699   -1.0541   -8.3167 H         1 UNK         0.0812 
    123 H123       31.6724   -2.2156   -8.8628 H         1 UNK         0.0812 
    124 H124       29.9805   -2.4591   -9.2590 H         1 UNK         0.0812 
    125 H125       33.4705   -1.1984  -10.6840 H         1 UNK         0.3205 
    126 H126       34.4050    1.4665  -10.8315 H         1 UNK         0.0754 
    127 H127       36.6461    0.4142  -10.4622 H         1 UNK         0.0769 
    128 H128       35.7072   -0.4879  -11.6384 H         1 UNK         0.0769 
    129 H129       35.8749   -1.0932   -9.9891 H         1 UNK         0.0769 
    130 H130       33.5189   -0.4174   -8.0602 H         1 UNK         0.2981 
    131 H131       34.7680    1.1697   -6.0151 H         1 UNK         0.0541 
    132 H132       32.0482    1.9371   -8.1379 H         1 UNK         0.3459 
    133 H133       31.4295    3.2196   -7.1432 H         1 UNK         0.3459 
    134 H134       33.9166   -1.2456   -5.8193 H         1 UNK         0.0612 
    135 H135       32.2995   -0.6198   -5.8016 H         1 UNK         0.0612 
    136 H136       31.7873    0.1921   -2.1327 H         1 UNK         0.0624 
    137 H137       31.2752    0.6940   -3.7245 H         1 UNK         0.0624 
@<TRIPOS>BOND
     1    1    2 1    
     2    1   72 1    
     3    1   73 1    
     4    1   74 1    
     5    2    3 2    
     6    2    4 am   BACKBONE|DICT|INTERRES
     7    4    5 1    
     8    4   75 1    
     9    5    6 1    
    10    5   35 1    
    11    5   76 1    
    12    6    7 1    
    13    6   77 1    
    14    6   78 1    
    15    7    8 1    
    16    8    9 1    
    17    8   79 1    
    18    8   80 1    
    19    9   10 ar   
    20    9   14 ar   
    21   10   11 ar   
    22   10   81 1    
    23   11   12 ar   
    24   11   71 1    
    25   12   13 ar   
    26   12   82 1    
    27   13   14 ar   
    28   13   15 1    
    29   14   83 1    
    30   15   16 1    
    31   15   84 1    
    32   15   85 1    
    33   16   17 1    
    34   17   18 1    
    35   17   86 1    
    36   17   87 1    
    37   18   19 1    
    38   18   37 1    
    39   18   88 1    
    40   19   20 am   BACKBONE|DICT|INTERRES
    41   19   89 1    
    42   20   21 2    
    43   20   22 1    
    44   22   23 1    
    45   22   24 1    
    46   22   90 1    
    47   23   91 1    
    48   23   92 1    
    49   23   93 1    
    50   24   25 am   BACKBONE|DICT|INTERRES
    51   24   94 1    
    52   25   26 2    
    53   25   27 1    
    54   27   28 1    
    55   27   29 1    
    56   27   95 1    
    57   28   96 1    
    58   28   97 1    
    59   28   98 1    
    60   29   30 am   BACKBONE|DICT|INTERRES
    61   29   99 1    
    62   30   31 2    
    63   30   32 1    
    64   32   33 1    
    65   32   34 1    
    66   32  100 1    
    67   33  101 1    
    68   33  102 1    
    69   33  103 1    
    70   34   35 am   BACKBONE|DICT|INTERRES
    71   34  104 1    
    72   35   36 2    
    73   37   38 2    
    74   37   39 am   BACKBONE|DICT|INTERRES
    75   39   40 1    
    76   39  105 1    
    77   40   41 1    
    78   40   42 1    
    79   40  106 1    
    80   41  107 1    
    81   41  108 1    
    82   41  109 1    
    83   42   43 2    
    84   42   44 am   BACKBONE|DICT|INTERRES
    85   44   45 1    
    86   44  110 1    
    87   45   46 1    
    88   45   47 1    
    89   45  111 1    
    90   46  112 1    
    91   46  113 1    
    92   46  114 1    
    93   47   48 2    
    94   47   49 am   BACKBONE|DICT|INTERRES
    95   49   50 1    
    96   49  115 1    
    97   50   51 1    
    98   50   52 1    
    99   50  116 1    
   100   51  117 1    
   101   51  118 1    
   102   51  119 1    
   103   52   53 2    
   104   52   54 am   BACKBONE|DICT|INTERRES
   105   54   55 1    
   106   54  120 1    
   107   55   56 1    
   108   55   57 1    
   109   55  121 1    
   110   56  122 1    
   111   56  123 1    
   112   56  124 1    
   113   57   58 2    
   114   57   59 am   BACKBONE|DICT|INTERRES
   115   59   60 1    
   116   59  125 1    
   117   60   61 1    
   118   60   62 1    
   119   60  126 1    
   120   61  127 1    
   121   61  128 1    
   122   61  129 1    
   123   62   63 2    
   124   62   64 am   BACKBONE|DICT|INTERRES
   125   64   65 1    
   126   64  130 1    
   127   65   66 1    
   128   65   69 1    
   129   65  131 1    
   130   66   67 am   BACKBONE|DICT|INTERRES
   131   66   68 2    
   132   67  132 1    
   133   67  133 1    
   134   69   70 1    
   135   69  134 1    
   136   69  135 1    
   137   70   71 1    
   138   71  136 1    
   139   71  137 1    
@<TRIPOS>SUBSTRUCTURE
     1 UNK         1 GROUP             0       ****    0 ROOT    
