@<TRIPOS>MOLECULE
3R137
137   139    1
SMALL
USER_CHARGES


@<TRIPOS>ATOM
      1 CA         25.4160   -5.1829   -2.2703 C.3       0 UNK        -0.2020 
      2 C          26.1884   -4.3844   -1.2321 C.2       0 UNK         0.4855 
      3 O          25.6648   -4.1147   -0.1512 O.2       0 UNK        -0.5197 
      4 N          27.4285   -3.9961   -1.5555 N.am      1 UNK        -0.4892 
      5 CA         28.3303   -3.2331   -0.6752 C.3       1 UNK         0.0835 
      6 C6         29.8203   -3.6100   -0.8878 C.3       12 UNK        -0.0855 
      7 S7         30.1098   -5.4099   -0.7115 S.3       12 UNK        -0.2931 
      8 C8         31.5541   -5.7107   -1.7910 C.3       12 UNK         0.0378 
      9 C9         31.3936   -5.1448   -3.1979 C.ar      12 UNK        -0.0802 
     10 C10        32.4030   -4.3448   -3.7428 C.ar      12 UNK        -0.0944 
     11 C11        32.2458   -3.7633   -5.0035 C.ar      12 UNK        -0.0787 
     12 C12        31.0701   -3.9873   -5.7233 C.ar      12 UNK        -0.0862 
     13 C13        30.0483   -4.7738   -5.1843 C.ar      12 UNK        -0.0733 
     14 C14        30.2282   -5.3769   -3.9366 C.ar      12 UNK        -0.0832 
     15 C15        28.7274   -4.9235   -5.9236 C.3       12 UNK         0.0240 
     16 S16        27.3867   -4.0048   -5.0949 S.3       12 UNK        -0.2522 
     17 C17        27.9605   -2.2753   -5.2078 C.3       12 UNK        -0.0967 
     18 CA         27.3036   -1.5221   -6.3852 C.3       5 UNK         0.0660 
     19 N          25.8478   -1.4199   -6.2430 N.am      5 UNK        -0.4015 
     20 C          25.0207   -1.0866   -7.2441 C.2       4 UNK         0.4946 
     21 O          25.4002   -0.8500   -8.3893 O.2       4 UNK        -0.5353 
     22 CA         23.5277   -0.9311   -6.9098 C.3       4 UNK         0.0277 
     23 CB         22.8125   -2.2880   -7.0019 C.3       4 UNK        -0.1981 
     24 N          23.2869   -0.3361   -5.5936 N.am      4 UNK        -0.4209 
     25 C          23.7365    0.8629   -5.1978 C.2       3 UNK         0.4942 
     26 O          24.3711    1.6273   -5.9243 O.2       3 UNK        -0.5208 
     27 CA         23.4915    1.2596   -3.7318 C.3       3 UNK         0.0250 
     28 CB         22.3032    0.5179   -3.0778 C.3       3 UNK        -0.1990 
     29 N          24.6996    1.1117   -2.9077 N.am      3 UNK        -0.4232 
     30 C          25.4331    0.0010   -2.7355 C.2       2 UNK         0.4993 
     31 O          25.2399   -1.0544   -3.3497 O.2       2 UNK        -0.5286 
     32 CA         26.5669    0.0716   -1.6979 C.3       2 UNK         0.0209 
     33 CB         26.0922    0.7021   -0.3684 C.3       2 UNK        -0.1931 
     34 N          27.0366   -1.2936   -1.4783 N.am      2 UNK        -0.4546 
     35 C          28.1039   -1.7053   -0.7846 C.2       1 UNK         0.5154 
     36 O          28.8948   -0.9324   -0.2415 O.2       1 UNK        -0.5181 
     37 C          27.9573   -0.1399   -6.5754 C.2       5 UNK         0.5014 
     38 O          28.9080   -0.0228   -7.3507 O.2       5 UNK        -0.5248 
     39 N          27.4256    0.8892   -5.8999 N.am      6 UNK        -0.4434 
     40 CA         27.8735    2.2765   -6.0420 C.3       6 UNK         0.0363 
     41 CB         27.3083    3.1303   -4.8956 C.3       6 UNK        -0.1936 
     42 C          27.5059    2.8715   -7.4130 C.2       6 UNK         0.5081 
     43 O          28.2477    3.7090   -7.9231 O.2       6 UNK        -0.5248 
     44 N          26.3872    2.4177   -7.9921 N.am      7 UNK        -0.4718 
     45 CA         25.9667    2.7561   -9.3493 C.3       7 UNK         0.0273 
     46 CB         24.4587    2.4941   -9.4997 C.3       7 UNK        -0.1935 
     47 C          26.7710    1.9916  -10.4152 C.2       7 UNK         0.5018 
     48 O          27.2829    2.6179  -11.3438 O.2       7 UNK        -0.5186 
     49 N          26.8385    0.6581  -10.2866 N.am      8 UNK        -0.4240 
     50 CA         27.4156   -0.2362  -11.2923 C.3       8 UNK         0.0235 
     51 CB         26.8645   -1.6602  -11.1044 C.3       8 UNK        -0.2000 
     52 C          28.9504   -0.2472  -11.2987 C.2       8 UNK         0.4941 
     53 O          29.5458   -0.0406  -12.3572 O.2       8 UNK        -0.5273 
     54 N          29.5623   -0.5264  -10.1399 N.am      9 UNK        -0.4262 
     55 CA         31.0141   -0.6624   -9.9996 C.3       9 UNK         0.0264 
     56 CB         31.3432   -1.7348   -8.9465 C.3       9 UNK        -0.1955 
     57 C          31.6711    0.6726   -9.6334 C.2       9 UNK         0.5031 
     58 O          32.7293    0.9879  -10.1791 O.2       9 UNK        -0.5390 
     59 N          31.0382    1.4181   -8.7134 N.am      10 UNK        -0.4204 
     60 CA         31.4830    2.7104   -8.1700 C.3       10 UNK         0.0237 
     61 CB         31.4427    3.8063   -9.2570 C.3       10 UNK        -0.1985 
     62 C          32.8407    2.6357   -7.4404 C.2       10 UNK         0.4970 
     63 O          33.6045    3.6032   -7.4551 O.2       10 UNK        -0.4914 
     64 N          33.1145    1.4829   -6.8186 N.am      11 UNK        -0.4285 
     65 CA         34.3101    1.2084   -6.0139 C.3       11 UNK         0.1007 
     66 C          34.3617    2.0134   -4.6834 C.2       11 UNK         0.5703 
     67 N          35.5445    2.1706   -4.1038 N.am      11 UNK        -0.7361 
     68 O          33.3483    2.4763   -4.1614 O.2       11 UNK        -0.4986 
     69 C69        34.4948   -0.3177   -5.7954 C.3       12 UNK        -0.0947 
     70 S70        33.0475   -1.1390   -5.0449 S.3       12 UNK        -0.2240 
     71 C71        33.3262   -2.8565   -5.5674 C.3       12 UNK         0.0194 
     72 H72        26.0857   -5.7292   -2.9342 H         1 UNK         0.0906 
     73 H73        24.7633   -5.9080   -1.7848 H         1 UNK         0.0906 
     74 H74        24.7996   -4.5166   -2.8738 H         1 UNK         0.0906 
     75 H75        27.8007   -4.2271   -2.4669 H         1 UNK         0.3140 
     76 H76        28.0889   -3.4860    0.3598 H         1 UNK         0.1085 
     77 H77        30.1512   -3.2633   -1.8673 H         1 UNK         0.0836 
     78 H78        30.4540   -3.1010   -0.1589 H         1 UNK         0.0836 
     79 H79        32.4355   -5.2890   -1.3053 H         1 UNK         0.0731 
     80 H80        31.7256   -6.7856   -1.8604 H         1 UNK         0.0731 
     81 H81        33.3036   -4.1505   -3.1761 H         1 UNK         0.1312 
     82 H82        30.9350   -3.5171   -6.6866 H         1 UNK         0.1406 
     83 H83        29.4372   -5.9831   -3.5161 H         1 UNK         0.1631 
     84 H84        28.4572   -5.9792   -5.9728 H         1 UNK         0.0717 
     85 H85        28.8137   -4.5787   -6.9553 H         1 UNK         0.0717 
     86 H86        29.0467   -2.2504   -5.2939 H         1 UNK         0.0934 
     87 H87        27.7340   -1.7810   -4.2623 H         1 UNK         0.0934 
     88 H88        27.5069   -2.0899   -7.2961 H         1 UNK         0.0739 
     89 H89        25.4709   -1.5611   -5.3105 H         1 UNK         0.3093 
     90 H90        23.0935   -0.2624   -7.6559 H         1 UNK         0.0818 
     91 H91        21.7372   -2.1812   -6.8579 H         1 UNK         0.0819 
     92 H92        22.9626   -2.7411   -7.9830 H         1 UNK         0.0819 
     93 H93        23.1841   -2.9932   -6.2571 H         1 UNK         0.0819 
     94 H94        22.8123   -0.9107   -4.9124 H         1 UNK         0.3041 
     95 H95        23.2481    2.3232   -3.7441 H         1 UNK         0.0784 
     96 H96        21.3966    0.6185   -3.6764 H         1 UNK         0.0793 
     97 H97        22.4980   -0.5466   -2.9426 H         1 UNK         0.0793 
     98 H98        22.0816    0.9336   -2.0948 H         1 UNK         0.0793 
     99 H99        24.9609    1.9356   -2.3844 H         1 UNK         0.3024 
    100 H100       27.3841    0.6604   -2.1195 H         1 UNK         0.1171 
    101 H101       26.8818    0.7066    0.3826 H         1 UNK         0.0786 
    102 H102       25.2421    0.1611    0.0497 H         1 UNK         0.0786 
    103 H103       25.7889    1.7410   -0.5000 H         1 UNK         0.0786 
    104 H104       26.4596   -1.9914   -1.9341 H         1 UNK         0.2977 
    105 H105       26.5936    0.7335   -5.3498 H         1 UNK         0.3127 
    106 H106       28.9620    2.2862   -5.9587 H         1 UNK         0.0770 
    107 H107       26.2200    3.1808   -4.9206 H         1 UNK         0.0814 
    108 H108       27.6793    4.1542   -4.9589 H         1 UNK         0.0814 
    109 H109       27.6068    2.7391   -3.9232 H         1 UNK         0.0814 
    110 H110       25.7873    1.7955   -7.4617 H         1 UNK         0.2983 
    111 H111       26.1372    3.8236   -9.5075 H         1 UNK         0.0947 
    112 H112       24.1144    2.7624  -10.4994 H         1 UNK         0.0806 
    113 H113       23.8825    3.0858   -8.7880 H         1 UNK         0.0806 
    114 H114       24.2079    1.4453   -9.3388 H         1 UNK         0.0806 
    115 H115       26.3582    0.2107   -9.5067 H         1 UNK         0.3000 
    116 H116       27.0886    0.1112  -12.2751 H         1 UNK         0.0850 
    117 H117       27.2568   -2.3353  -11.8662 H         1 UNK         0.0810 
    118 H118       25.7774   -1.6768  -11.1855 H         1 UNK         0.0810 
    119 H119       27.1305   -2.0757  -10.1317 H         1 UNK         0.0810 
    120 H120       29.0135   -0.6061   -9.2910 H         1 UNK         0.3040 
    121 H121       31.4411   -0.9955  -10.9484 H         1 UNK         0.0766 
    122 H122       32.4207   -1.8911   -8.8790 H         1 UNK         0.0812 
    123 H123       30.9960   -1.4557   -7.9519 H         1 UNK         0.0812 
    124 H124       30.8927   -2.6935   -9.2036 H         1 UNK         0.0812 
    125 H125       30.1961    1.0271   -8.2958 H         1 UNK         0.3205 
    126 H126       30.7584    2.9840   -7.4040 H         1 UNK         0.0754 
    127 H127       32.1970    3.6433  -10.0273 H         1 UNK         0.0769 
    128 H128       31.6235    4.7917   -8.8263 H         1 UNK         0.0769 
    129 H129       30.4675    3.8424   -9.7433 H         1 UNK         0.0769 
    130 H130       32.4193    0.7524   -6.8229 H         1 UNK         0.2981 
    131 H131       35.1613    1.5501   -6.6063 H         1 UNK         0.0541 
    132 H132       36.3830    1.7918   -4.5156 H         1 UNK         0.3459 
    133 H133       35.5996    2.6813   -3.2365 H         1 UNK         0.3459 
    134 H134       35.3723   -0.5222   -5.1795 H         1 UNK         0.0612 
    135 H135       34.6942   -0.7899   -6.7587 H         1 UNK         0.0612 
    136 H136       33.3359   -2.9114   -6.6570 H         1 UNK         0.0624 
    137 H137       34.3099   -3.1851   -5.2282 H         1 UNK         0.0624 
@<TRIPOS>BOND
     1    1    2 1    
     2    1   72 1    
     3    1   73 1    
     4    1   74 1    
     5    2    3 2    
     6    2    4 am   BACKBONE|DICT|INTERRES
     7    4    5 1    
     8    4   75 1    
     9    5    6 1    
    10    5   35 1    
    11    5   76 1    
    12    6    7 1    
    13    6   77 1    
    14    6   78 1    
    15    7    8 1    
    16    8    9 1    
    17    8   79 1    
    18    8   80 1    
    19    9   10 ar   
    20    9   14 ar   
    21   10   11 ar   
    22   10   81 1    
    23   11   12 ar   
    24   11   71 1    
    25   12   13 ar   
    26   12   82 1    
    27   13   14 ar   
    28   13   15 1    
    29   14   83 1    
    30   15   16 1    
    31   15   84 1    
    32   15   85 1    
    33   16   17 1    
    34   17   18 1    
    35   17   86 1    
    36   17   87 1    
    37   18   19 1    
    38   18   37 1    
    39   18   88 1    
    40   19   20 am   BACKBONE|DICT|INTERRES
    41   19   89 1    
    42   20   21 2    
    43   20   22 1    
    44   22   23 1    
    45   22   24 1    
    46   22   90 1    
    47   23   91 1    
    48   23   92 1    
    49   23   93 1    
    50   24   25 am   BACKBONE|DICT|INTERRES
    51   24   94 1    
    52   25   26 2    
    53   25   27 1    
    54   27   28 1    
    55   27   29 1    
    56   27   95 1    
    57   28   96 1    
    58   28   97 1    
    59   28   98 1    
    60   29   30 am   BACKBONE|DICT|INTERRES
    61   29   99 1    
    62   30   31 2    
    63   30   32 1    
    64   32   33 1    
    65   32   34 1    
    66   32  100 1    
    67   33  101 1    
    68   33  102 1    
    69   33  103 1    
    70   34   35 am   BACKBONE|DICT|INTERRES
    71   34  104 1    
    72   35   36 2    
    73   37   38 2    
    74   37   39 am   BACKBONE|DICT|INTERRES
    75   39   40 1    
    76   39  105 1    
    77   40   41 1    
    78   40   42 1    
    79   40  106 1    
    80   41  107 1    
    81   41  108 1    
    82   41  109 1    
    83   42   43 2    
    84   42   44 am   BACKBONE|DICT|INTERRES
    85   44   45 1    
    86   44  110 1    
    87   45   46 1    
    88   45   47 1    
    89   45  111 1    
    90   46  112 1    
    91   46  113 1    
    92   46  114 1    
    93   47   48 2    
    94   47   49 am   BACKBONE|DICT|INTERRES
    95   49   50 1    
    96   49  115 1    
    97   50   51 1    
    98   50   52 1    
    99   50  116 1    
   100   51  117 1    
   101   51  118 1    
   102   51  119 1    
   103   52   53 2    
   104   52   54 am   BACKBONE|DICT|INTERRES
   105   54   55 1    
   106   54  120 1    
   107   55   56 1    
   108   55   57 1    
   109   55  121 1    
   110   56  122 1    
   111   56  123 1    
   112   56  124 1    
   113   57   58 2    
   114   57   59 am   BACKBONE|DICT|INTERRES
   115   59   60 1    
   116   59  125 1    
   117   60   61 1    
   118   60   62 1    
   119   60  126 1    
   120   61  127 1    
   121   61  128 1    
   122   61  129 1    
   123   62   63 2    
   124   62   64 am   BACKBONE|DICT|INTERRES
   125   64   65 1    
   126   64  130 1    
   127   65   66 1    
   128   65   69 1    
   129   65  131 1    
   130   66   67 am   BACKBONE|DICT|INTERRES
   131   66   68 2    
   132   67  132 1    
   133   67  133 1    
   134   69   70 1    
   135   69  134 1    
   136   69  135 1    
   137   70   71 1    
   138   71  136 1    
   139   71  137 1    
@<TRIPOS>SUBSTRUCTURE
     1 UNK         1 GROUP             0       ****    0 ROOT    
