@<TRIPOS>MOLECULE
3R137
137   139    1
SMALL
USER_CHARGES


@<TRIPOS>ATOM
      1 CA         22.2489   -3.9191   -4.0009 C.3       0 UNK        -0.2020 
      2 C          23.4050   -4.3741   -3.1240 C.2       0 UNK         0.4855 
      3 O          23.2531   -5.3075   -2.3356 O.2       0 UNK        -0.5197 
      4 N          24.5564   -3.7028   -3.2282 N.am      1 UNK        -0.4892 
      5 CA         25.7805   -3.9652   -2.4678 C.3       1 UNK         0.0835 
      6 C6         27.0299   -3.5764   -3.3031 C.3       12 UNK        -0.0855 
      7 S7         28.4890   -4.5829   -2.8850 S.3       12 UNK        -0.2931 
      8 C8         29.5544   -3.3721   -2.0395 C.3       12 UNK         0.0378 
      9 C9         30.1883   -2.3715   -2.9980 C.ar      12 UNK        -0.0802 
     10 C10        31.1129   -2.8096   -3.9536 C.ar      12 UNK        -0.0944 
     11 C11        31.7656   -1.8914   -4.7800 C.ar      12 UNK        -0.0787 
     12 C12        31.4816   -0.5320   -4.6512 C.ar      12 UNK        -0.0862 
     13 C13        30.5524   -0.0782   -3.7129 C.ar      12 UNK        -0.0733 
     14 C14        29.9055   -1.0038   -2.8865 C.ar      12 UNK        -0.0832 
     15 C15        30.3016    1.4195   -3.5745 C.3       12 UNK         0.0240 
     16 S16        28.6408    1.9524   -4.1071 S.3       12 UNK        -0.2522 
     17 C17        28.3403    1.0173   -5.6479 C.3       12 UNK        -0.0967 
     18 CA         27.2446   -0.0484   -5.4049 C.3       5 UNK         0.0660 
     19 N          25.9508    0.5755   -5.1024 N.am      5 UNK        -0.4015 
     20 C          24.8581   -0.0660   -4.6731 C.2       4 UNK         0.4946 
     21 O          24.7937   -1.2847   -4.4972 O.2       4 UNK        -0.5353 
     22 CA         23.6121    0.8005   -4.4237 C.3       4 UNK         0.0277 
     23 CB         22.7359    0.8478   -5.6860 C.3       4 UNK        -0.1981 
     24 N          22.8130    0.2895   -3.3072 N.am      4 UNK        -0.4209 
     25 C          23.1887    0.3190   -2.0209 C.2       3 UNK         0.4942 
     26 O          24.2226    0.8604   -1.6266 O.2       3 UNK        -0.5208 
     27 CA         22.2676   -0.3652   -0.9957 C.3       3 UNK         0.0250 
     28 CB         20.8889   -0.7761   -1.5550 C.3       3 UNK        -0.1990 
     29 N          22.9499   -1.5544   -0.4935 N.am      3 UNK        -0.4232 
     30 C          23.5505   -1.6758    0.6979 C.2       2 UNK         0.4993 
     31 O          23.5147   -0.8177    1.5809 O.2       2 UNK        -0.5286 
     32 CA         24.3203   -2.9871    0.9535 C.3       2 UNK         0.0209 
     33 CB         23.4779   -3.9494    1.8069 C.3       2 UNK        -0.1931 
     34 N          24.7139   -3.6658   -0.2863 N.am      2 UNK        -0.4546 
     35 C          25.6911   -3.2484   -1.1031 C.2       1 UNK         0.5154 
     36 O          26.4370   -2.3060   -0.8331 O.2       1 UNK        -0.5181 
     37 C          27.1451   -1.0427   -6.5781 C.2       5 UNK         0.5014 
     38 O          26.3301   -0.8467   -7.4835 O.2       5 UNK        -0.5248 
     39 N          27.9775   -2.0935   -6.5301 N.am      6 UNK        -0.4434 
     40 CA         27.9407   -3.2346   -7.4520 C.3       6 UNK         0.0363 
     41 CB         28.8766   -4.3388   -6.9336 C.3       6 UNK        -0.1936 
     42 C          28.2568   -2.8940   -8.9202 C.2       6 UNK         0.5081 
     43 O          27.7939   -3.6076   -9.8112 O.2       6 UNK        -0.5248 
     44 N          29.0120   -1.8162   -9.1534 N.am      7 UNK        -0.4718 
     45 CA         29.3185   -1.2680  -10.4694 C.3       7 UNK         0.0273 
     46 CB         30.4364   -2.0853  -11.1451 C.3       7 UNK        -0.1935 
     47 C          29.6687    0.2190  -10.3283 C.2       7 UNK         0.5018 
     48 O          30.0135    0.6706   -9.2301 O.2       7 UNK        -0.5186 
     49 N          29.5526    0.9490  -11.4457 N.am      8 UNK        -0.4240 
     50 CA         29.7349    2.3998  -11.5517 C.3       8 UNK         0.0235 
     51 CB         29.4443    2.8328  -12.9983 C.3       8 UNK        -0.2000 
     52 C          31.1316    2.8813  -11.1257 C.2       8 UNK         0.4941 
     53 O          32.1098    2.1469  -11.2810 O.2       8 UNK        -0.5273 
     54 N          31.1855    4.1166  -10.6042 N.am      9 UNK        -0.4262 
     55 CA         32.3759    4.8051  -10.0811 C.3       9 UNK         0.0264 
     56 CB         33.3627    5.1315  -11.2233 C.3       9 UNK        -0.1955 
     57 C          33.0454    4.0556   -8.9094 C.2       9 UNK         0.5031 
     58 O          34.2695    4.1001   -8.7752 O.2       9 UNK        -0.5390 
     59 N          32.2201    3.3758   -8.0964 N.am      10 UNK        -0.4204 
     60 CA         32.5906    2.4547   -7.0164 C.3       10 UNK         0.0237 
     61 CB         33.2539    3.2050   -5.8415 C.3       10 UNK        -0.1985 
     62 C          33.4299    1.2735   -7.5421 C.2       10 UNK         0.4970 
     63 O          34.5294    1.0211   -7.0461 O.2       10 UNK        -0.4914 
     64 N          32.8761    0.5828   -8.5454 N.am      11 UNK        -0.4285 
     65 CA         33.4871   -0.5373   -9.2755 C.3       11 UNK         0.1007 
     66 C          34.7457   -0.1196  -10.0892 C.2       11 UNK         0.5703 
     67 N          34.6713    0.9673  -10.8461 N.am      11 UNK        -0.7361 
     68 O          35.7847   -0.7758  -10.0523 O.2       11 UNK        -0.4986 
     69 C69        33.6955   -1.8163   -8.4111 C.3       12 UNK        -0.0947 
     70 S70        32.2001   -2.3105   -7.4828 S.3       12 UNK        -0.2240 
     71 C71        32.8251   -2.3401   -5.7734 C.3       12 UNK         0.0194 
     72 H72        22.4725   -2.9834   -4.5138 H         1 UNK         0.0906 
     73 H73        22.0320   -4.6761   -4.7539 H         1 UNK         0.0906 
     74 H74        21.3526   -3.7725   -3.3992 H         1 UNK         0.0906 
     75 H75        24.6029   -2.8739   -3.8270 H         1 UNK         0.3140 
     76 H76        25.8295   -5.0381   -2.2663 H         1 UNK         0.1085 
     77 H77        27.2549   -2.5120   -3.2327 H         1 UNK         0.0836 
     78 H78        26.8345   -3.7576   -4.3611 H         1 UNK         0.0836 
     79 H79        30.3505   -3.9125   -1.5255 H         1 UNK         0.0731 
     80 H80        28.9855   -2.8644   -1.2599 H         1 UNK         0.0731 
     81 H81        31.3420   -3.8637   -4.0329 H         1 UNK         0.1312 
     82 H82        32.0063    0.1738   -5.2757 H         1 UNK         0.1406 
     83 H83        29.1996   -0.6547   -2.1442 H         1 UNK         0.1631 
     84 H84        31.0394    1.9865   -4.1432 H         1 UNK         0.0717 
     85 H85        30.4427    1.7095   -2.5324 H         1 UNK         0.0717 
     86 H86        28.0356    1.7136   -6.4316 H         1 UNK         0.0934 
     87 H87        29.2695    0.5686   -6.0017 H         1 UNK         0.0934 
     88 H88        27.5238   -0.6255   -4.5224 H         1 UNK         0.0739 
     89 H89        25.9066    1.5743   -5.2380 H         1 UNK         0.3093 
     90 H90        23.9300    1.8161   -4.1774 H         1 UNK         0.0818 
     91 H91        23.2927    1.2492   -6.5339 H         1 UNK         0.0819 
     92 H92        22.3847   -0.1452   -5.9705 H         1 UNK         0.0819 
     93 H93        21.8635    1.4856   -5.5420 H         1 UNK         0.0819 
     94 H94        21.9566   -0.1869   -3.5471 H         1 UNK         0.3041 
     95 H95        22.1024    0.3502   -0.1873 H         1 UNK         0.0784 
     96 H96        20.3505    0.0857   -1.9521 H         1 UNK         0.0793 
     97 H97        20.9648   -1.5212   -2.3472 H         1 UNK         0.0793 
     98 H98        20.2652   -1.2018   -0.7685 H         1 UNK         0.0793 
     99 H99        23.0810   -2.3058   -1.1536 H         1 UNK         0.3024 
    100 H100       25.2242   -2.7301    1.5110 H         1 UNK         0.1171 
    101 H101       22.5624   -4.2483    1.2948 H         1 UNK         0.0786 
    102 H102       24.0358   -4.8530    2.0534 H         1 UNK         0.0786 
    103 H103       23.1872   -3.4828    2.7493 H         1 UNK         0.0786 
    104 H104       24.1284   -4.4309   -0.6053 H         1 UNK         0.2977 
    105 H105       28.6423   -2.1573   -5.7714 H         1 UNK         0.3127 
    106 H106       26.9217   -3.6274   -7.4354 H         1 UNK         0.0770 
    107 H107       29.9045   -3.9900   -6.8425 H         1 UNK         0.0814 
    108 H108       28.8825   -5.1960   -7.6082 H         1 UNK         0.0814 
    109 H109       28.5604   -4.7032   -5.9568 H         1 UNK         0.0814 
    110 H110       29.3400   -1.2549   -8.3774 H         1 UNK         0.2983 
    111 H111       28.4185   -1.3239  -11.0863 H         1 UNK         0.0947 
    112 H112       30.8860   -1.5490  -11.9818 H         1 UNK         0.0806 
    113 H113       31.2302   -2.3418  -10.4456 H         1 UNK         0.0806 
    114 H114       30.0440   -3.0230  -11.5389 H         1 UNK         0.0806 
    115 H115       29.3002    0.4747  -12.3003 H         1 UNK         0.3000 
    116 H116       28.9971    2.8631  -10.8932 H         1 UNK         0.0850 
    117 H117       30.1382    2.3715  -13.7025 H         1 UNK         0.0810 
    118 H118       29.5373    3.9138  -13.1126 H         1 UNK         0.0810 
    119 H119       28.4313    2.5649  -13.2993 H         1 UNK         0.0810 
    120 H120       30.3226    4.6401  -10.5368 H         1 UNK         0.3040 
    121 H121       32.0262    5.7531   -9.6692 H         1 UNK         0.0766 
    122 H122       33.8111    4.2294  -11.6410 H         1 UNK         0.0812 
    123 H123       32.8691    5.6671  -12.0341 H         1 UNK         0.0812 
    124 H124       34.1776    5.7635  -10.8684 H         1 UNK         0.0812 
    125 H125       31.2342    3.4090   -8.3157 H         1 UNK         0.3205 
    126 H126       31.6544    2.0310   -6.6504 H         1 UNK         0.0754 
    127 H127       33.4486    2.5292   -5.0078 H         1 UNK         0.0769 
    128 H128       32.6122    4.0034   -5.4689 H         1 UNK         0.0769 
    129 H129       34.2084    3.6477   -6.1274 H         1 UNK         0.0769 
    130 H130       31.9544    0.8521   -8.8740 H         1 UNK         0.2981 
    131 H131       32.7585   -0.7927  -10.0412 H         1 UNK         0.0541 
    132 H132       35.4741    1.2574  -11.3799 H         1 UNK         0.3459 
    133 H133       33.7921    1.4748  -10.9281 H         1 UNK         0.3459 
    134 H134       34.5342   -1.6763   -7.7285 H         1 UNK         0.0612 
    135 H135       33.9724   -2.6550   -9.0517 H         1 UNK         0.0612 
    136 H136       33.6879   -1.6805   -5.6718 H         1 UNK         0.0624 
    137 H137       33.1778   -3.3459   -5.5409 H         1 UNK         0.0624 
@<TRIPOS>BOND
     1    1    2 1    
     2    1   72 1    
     3    1   73 1    
     4    1   74 1    
     5    2    3 2    
     6    2    4 am   BACKBONE|DICT|INTERRES
     7    4    5 1    
     8    4   75 1    
     9    5    6 1    
    10    5   35 1    
    11    5   76 1    
    12    6    7 1    
    13    6   77 1    
    14    6   78 1    
    15    7    8 1    
    16    8    9 1    
    17    8   79 1    
    18    8   80 1    
    19    9   10 ar   
    20    9   14 ar   
    21   10   11 ar   
    22   10   81 1    
    23   11   12 ar   
    24   11   71 1    
    25   12   13 ar   
    26   12   82 1    
    27   13   14 ar   
    28   13   15 1    
    29   14   83 1    
    30   15   16 1    
    31   15   84 1    
    32   15   85 1    
    33   16   17 1    
    34   17   18 1    
    35   17   86 1    
    36   17   87 1    
    37   18   19 1    
    38   18   37 1    
    39   18   88 1    
    40   19   20 am   BACKBONE|DICT|INTERRES
    41   19   89 1    
    42   20   21 2    
    43   20   22 1    
    44   22   23 1    
    45   22   24 1    
    46   22   90 1    
    47   23   91 1    
    48   23   92 1    
    49   23   93 1    
    50   24   25 am   BACKBONE|DICT|INTERRES
    51   24   94 1    
    52   25   26 2    
    53   25   27 1    
    54   27   28 1    
    55   27   29 1    
    56   27   95 1    
    57   28   96 1    
    58   28   97 1    
    59   28   98 1    
    60   29   30 am   BACKBONE|DICT|INTERRES
    61   29   99 1    
    62   30   31 2    
    63   30   32 1    
    64   32   33 1    
    65   32   34 1    
    66   32  100 1    
    67   33  101 1    
    68   33  102 1    
    69   33  103 1    
    70   34   35 am   BACKBONE|DICT|INTERRES
    71   34  104 1    
    72   35   36 2    
    73   37   38 2    
    74   37   39 am   BACKBONE|DICT|INTERRES
    75   39   40 1    
    76   39  105 1    
    77   40   41 1    
    78   40   42 1    
    79   40  106 1    
    80   41  107 1    
    81   41  108 1    
    82   41  109 1    
    83   42   43 2    
    84   42   44 am   BACKBONE|DICT|INTERRES
    85   44   45 1    
    86   44  110 1    
    87   45   46 1    
    88   45   47 1    
    89   45  111 1    
    90   46  112 1    
    91   46  113 1    
    92   46  114 1    
    93   47   48 2    
    94   47   49 am   BACKBONE|DICT|INTERRES
    95   49   50 1    
    96   49  115 1    
    97   50   51 1    
    98   50   52 1    
    99   50  116 1    
   100   51  117 1    
   101   51  118 1    
   102   51  119 1    
   103   52   53 2    
   104   52   54 am   BACKBONE|DICT|INTERRES
   105   54   55 1    
   106   54  120 1    
   107   55   56 1    
   108   55   57 1    
   109   55  121 1    
   110   56  122 1    
   111   56  123 1    
   112   56  124 1    
   113   57   58 2    
   114   57   59 am   BACKBONE|DICT|INTERRES
   115   59   60 1    
   116   59  125 1    
   117   60   61 1    
   118   60   62 1    
   119   60  126 1    
   120   61  127 1    
   121   61  128 1    
   122   61  129 1    
   123   62   63 2    
   124   62   64 am   BACKBONE|DICT|INTERRES
   125   64   65 1    
   126   64  130 1    
   127   65   66 1    
   128   65   69 1    
   129   65  131 1    
   130   66   67 am   BACKBONE|DICT|INTERRES
   131   66   68 2    
   132   67  132 1    
   133   67  133 1    
   134   69   70 1    
   135   69  134 1    
   136   69  135 1    
   137   70   71 1    
   138   71  136 1    
   139   71  137 1    
@<TRIPOS>SUBSTRUCTURE
     1 UNK         1 GROUP             0       ****    0 ROOT    
