@<TRIPOS>MOLECULE
3R137
137   139    1
SMALL
USER_CHARGES


@<TRIPOS>ATOM
      1 CA         23.7261   -6.1863   -2.9234 C.3       0 UNK        -0.2020 
      2 C          24.2527   -5.1727   -1.9194 C.2       0 UNK         0.4855 
      3 O          23.4796   -4.3731   -1.3904 O.2       0 UNK        -0.5197 
      4 N          25.5664   -5.1986   -1.6631 N.am      1 UNK        -0.4892 
      5 CA         26.3134   -4.2978   -0.7769 C.3       1 UNK         0.0835 
      6 C6         27.8120   -4.7016   -0.6587 C.3       12 UNK        -0.0855 
      7 S7         28.5735   -5.3249   -2.2048 S.3       12 UNK        -0.2931 
      8 C8         30.2808   -4.7103   -2.0809 C.3       12 UNK         0.0378 
      9 C9         30.4437   -3.3372   -2.7161 C.ar      12 UNK        -0.0802 
     10 C10        30.6030   -3.2240   -4.1007 C.ar      12 UNK        -0.0944 
     11 C11        30.8050   -1.9746   -4.6946 C.ar      12 UNK        -0.0787 
     12 C12        30.8742   -0.8373   -3.8852 C.ar      12 UNK        -0.0862 
     13 C13        30.6687   -0.9280   -2.5041 C.ar      12 UNK        -0.0733 
     14 C14        30.4610   -2.1847   -1.9253 C.ar      12 UNK        -0.0832 
     15 C15        30.6704    0.3212   -1.6258 C.3       12 UNK         0.0240 
     16 S16        29.6314    1.6827   -2.2670 S.3       12 UNK        -0.2522 
     17 C17        28.0270    0.8611   -2.5587 C.3       12 UNK        -0.0967 
     18 CA         27.7699    0.6432   -4.0728 C.3       5 UNK         0.0660 
     19 N          27.0824   -0.6223   -4.3496 N.am      5 UNK        -0.4015 
     20 C          26.8786   -1.1454   -5.5688 C.2       4 UNK         0.4946 
     21 O          27.2494   -0.6138   -6.6140 O.2       4 UNK        -0.5353 
     22 CA         26.0811   -2.4554   -5.6387 C.3       4 UNK         0.0277 
     23 CB         26.9788   -3.6648   -5.3319 C.3       4 UNK        -0.1981 
     24 N          24.9452   -2.4151   -4.7160 N.am      4 UNK        -0.4209 
     25 C          23.7927   -1.7804   -4.9814 C.2       3 UNK         0.4942 
     26 O          23.5146   -1.3018   -6.0807 O.2       3 UNK        -0.5208 
     27 CA         22.7883   -1.6178   -3.8260 C.3       3 UNK         0.0250 
     28 CB         21.7279   -2.7291   -3.8600 C.3       3 UNK        -0.1990 
     29 N          23.4306   -1.5794   -2.5086 N.am      3 UNK        -0.4232 
     30 C          24.1812   -0.5540   -2.0760 C.2       2 UNK         0.4993 
     31 O          24.3730    0.4710   -2.7293 O.2       2 UNK        -0.5286 
     32 CA         24.8865   -0.7137   -0.7169 C.3       2 UNK         0.0209 
     33 CB         23.9913   -0.1910    0.4173 C.3       2 UNK        -0.1931 
     34 N          25.2954   -2.0911   -0.4229 N.am      2 UNK        -0.4546 
     35 C          26.1231   -2.8226   -1.1826 C.2       1 UNK         0.5154 
     36 O          26.6615   -2.3890   -2.2012 O.2       1 UNK        -0.5181 
     37 C          27.1078    1.8658   -4.7427 C.2       5 UNK         0.5014 
     38 O          27.8120    2.7694   -5.1954 O.2       5 UNK        -0.5248 
     39 N          25.7741    1.8418   -4.8672 N.am      6 UNK        -0.4434 
     40 CA         24.9755    2.8049   -5.6309 C.3       6 UNK         0.0363 
     41 CB         23.4860    2.4915   -5.4144 C.3       6 UNK        -0.1936 
     42 C          25.2973    2.8605   -7.1411 C.2       6 UNK         0.5081 
     43 O          24.9219    3.8387   -7.7882 O.2       6 UNK        -0.5248 
     44 N          25.9746    1.8371   -7.6798 N.am      7 UNK        -0.4718 
     45 CA         26.3845    1.7282   -9.0797 C.3       7 UNK         0.0273 
     46 CB         25.5105    0.6641   -9.7699 C.3       7 UNK        -0.1935 
     47 C          27.8886    1.4160   -9.1927 C.2       7 UNK         0.5018 
     48 O          28.2980    0.7310  -10.1331 O.2       7 UNK        -0.5186 
     49 N          28.6977    1.9166   -8.2453 N.am      8 UNK        -0.4240 
     50 CA         30.1478    1.7032   -8.1590 C.3       8 UNK         0.0235 
     51 CB         30.6267    2.0393   -6.7366 C.3       8 UNK        -0.2000 
     52 C          30.9520    2.4700   -9.2272 C.2       8 UNK         0.4941 
     53 O          31.8181    3.2814   -8.8908 O.2       8 UNK        -0.5273 
     54 N          30.6861    2.1826  -10.5055 N.am      9 UNK        -0.4262 
     55 CA         31.4108    2.6990  -11.6687 C.3       9 UNK         0.0264 
     56 CB         30.5255    2.5315  -12.9179 C.3       9 UNK        -0.1955 
     57 C          32.7848    2.0140  -11.8143 C.2       9 UNK         0.5031 
     58 O          33.0005    1.2659  -12.7698 O.2       9 UNK        -0.5390 
     59 N          33.6672    2.2619  -10.8341 N.am      10 UNK        -0.4204 
     60 CA         34.9977    1.6689  -10.6464 C.3       10 UNK         0.0237 
     61 CB         35.9670    2.1276  -11.7574 C.3       10 UNK        -0.1985 
     62 C          34.9261    0.1363  -10.4957 C.2       10 UNK         0.4970 
     63 O          35.5791   -0.5924  -11.2454 O.2       10 UNK        -0.4914 
     64 N          34.1045   -0.3204   -9.5399 N.am      11 UNK        -0.4285 
     65 CA         33.8345   -1.7437   -9.2779 C.3       11 UNK         0.1007 
     66 C          35.0167   -2.5615   -8.6742 C.2       11 UNK         0.5703 
     67 N          36.0871   -1.9352   -8.1994 N.am      11 UNK        -0.7361 
     68 O          34.9643   -3.7891   -8.6513 O.2       11 UNK        -0.4986 
     69 C69        32.5098   -1.9383   -8.4917 C.3       12 UNK        -0.0947 
     70 S70        32.5552   -1.3438   -6.7651 S.3       12 UNK        -0.2240 
     71 C71        30.8986   -1.8525   -6.2097 C.3       12 UNK         0.0194 
     72 H72        23.5690   -5.7122   -3.8916 H         1 UNK         0.0906 
     73 H73        24.4190   -7.0165   -3.0591 H         1 UNK         0.0906 
     74 H74        22.7748   -6.5951   -2.5835 H         1 UNK         0.0906 
     75 H75        26.1544   -5.8523   -2.1630 H         1 UNK         0.3140 
     76 H76        25.8777   -4.4133    0.2179 H         1 UNK         0.1085 
     77 H77        28.4062   -3.8787   -0.2566 H         1 UNK         0.0836 
     78 H78        27.9026   -5.5031    0.0761 H         1 UNK         0.0836 
     79 H79        30.9396   -5.4175   -2.5871 H         1 UNK         0.0731 
     80 H80        30.6009   -4.6997   -1.0378 H         1 UNK         0.0731 
     81 H81        30.5619   -4.1130   -4.7152 H         1 UNK         0.1312 
     82 H82        31.0519    0.1282   -4.3360 H         1 UNK         0.1406 
     83 H83        30.3210   -2.2687   -0.8564 H         1 UNK         0.1631 
     84 H84        31.6958    0.6794   -1.5274 H         1 UNK         0.0717 
     85 H85        30.3303    0.0814   -0.6172 H         1 UNK         0.0717 
     86 H86        28.0334   -0.0906   -2.0259 H         1 UNK         0.0934 
     87 H87        27.2313    1.4480   -2.0956 H         1 UNK         0.0934 
     88 H88        28.7290    0.5286   -4.5693 H         1 UNK         0.0739 
     89 H89        26.8165   -1.1803   -3.5404 H         1 UNK         0.3093 
     90 H90        25.7055   -2.5682   -6.6582 H         1 UNK         0.0818 
     91 H91        26.4167   -4.5980   -5.3618 H         1 UNK         0.0819 
     92 H92        27.7824   -3.7444   -6.0650 H         1 UNK         0.0819 
     93 H93        27.4489   -3.5877   -4.3521 H         1 UNK         0.0819 
     94 H94        25.1210   -2.7341   -3.7725 H         1 UNK         0.3041 
     95 H95        22.2767   -0.6641   -3.9749 H         1 UNK         0.0784 
     96 H96        21.1951   -2.7286   -4.8120 H         1 UNK         0.0793 
     97 H97        22.1696   -3.7169   -3.7367 H         1 UNK         0.0793 
     98 H98        20.9853   -2.5936   -3.0735 H         1 UNK         0.0793 
     99 H99        23.3502   -2.4122   -1.9315 H         1 UNK         0.3024 
    100 H100       25.7898   -0.1020   -0.7470 H         1 UNK         0.1171 
    101 H101       24.5127   -0.2066    1.3745 H         1 UNK         0.0786 
    102 H102       23.6900    0.8412    0.2318 H         1 UNK         0.0786 
    103 H103       23.0809   -0.7830    0.5196 H         1 UNK         0.0786 
    104 H104       24.8488   -2.5325    0.3686 H         1 UNK         0.2977 
    105 H105       25.2606    1.1168   -4.3736 H         1 UNK         0.3127 
    106 H106       25.1810    3.7964   -5.2225 H         1 UNK         0.0770 
    107 H107       23.2270    1.4996   -5.7867 H         1 UNK         0.0814 
    108 H108       22.8535    3.2116   -5.9354 H         1 UNK         0.0814 
    109 H109       23.2201    2.5330   -4.3579 H         1 UNK         0.0814 
    110 H110       26.2787    1.0705   -7.0848 H         1 UNK         0.2983 
    111 H111       26.2350    2.6793   -9.5948 H         1 UNK         0.0947 
    112 H112       25.6597   -0.3218   -9.3271 H         1 UNK         0.0806 
    113 H113       25.7454    0.5872  -10.8323 H         1 UNK         0.0806 
    114 H114       24.4514    0.9097   -9.6912 H         1 UNK         0.0806 
    115 H115       28.2801    2.4596   -7.5000 H         1 UNK         0.3000 
    116 H116       30.3394    0.6413   -8.3253 H         1 UNK         0.0850 
    117 H117       30.1212    1.4215   -6.0014 H         1 UNK         0.0810 
    118 H118       30.4405    3.0833   -6.4814 H         1 UNK         0.0810 
    119 H119       31.6963    1.8566   -6.6243 H         1 UNK         0.0810 
    120 H120       29.9404    1.5133  -10.6828 H         1 UNK         0.3040 
    121 H121       31.5888    3.7674  -11.5278 H         1 UNK         0.0766 
    122 H122       31.0264    2.9179  -13.8065 H         1 UNK         0.0812 
    123 H123       29.5866    3.0755  -12.8138 H         1 UNK         0.0812 
    124 H124       30.2859    1.4841  -13.1064 H         1 UNK         0.0812 
    125 H125       33.3302    2.8476  -10.0731 H         1 UNK         0.3205 
    126 H126       35.3790    2.0545   -9.6996 H         1 UNK         0.0754 
    127 H127       36.9775    1.7635  -11.5677 H         1 UNK         0.0769 
    128 H128       36.0201    3.2149  -11.8124 H         1 UNK         0.0769 
    129 H129       35.6680    1.7572  -12.7386 H         1 UNK         0.0769 
    130 H130       33.6247    0.3370   -8.9442 H         1 UNK         0.2981 
    131 H131       33.6655   -2.1948  -10.2577 H         1 UNK         0.0541 
    132 H132       36.8466   -2.4760   -7.8174 H         1 UNK         0.3459 
    133 H133       36.1377   -0.9298   -8.2109 H         1 UNK         0.3459 
    134 H134       31.6944   -1.4309   -9.0097 H         1 UNK         0.0612 
    135 H135       32.2404   -2.9960   -8.4832 H         1 UNK         0.0612 
    136 H136       30.6362   -2.8028   -6.6769 H         1 UNK         0.0624 
    137 H137       30.1624   -1.1281   -6.5606 H         1 UNK         0.0624 
@<TRIPOS>BOND
     1    1    2 1    
     2    1   72 1    
     3    1   73 1    
     4    1   74 1    
     5    2    3 2    
     6    2    4 am   BACKBONE|DICT|INTERRES
     7    4    5 1    
     8    4   75 1    
     9    5    6 1    
    10    5   35 1    
    11    5   76 1    
    12    6    7 1    
    13    6   77 1    
    14    6   78 1    
    15    7    8 1    
    16    8    9 1    
    17    8   79 1    
    18    8   80 1    
    19    9   10 ar   
    20    9   14 ar   
    21   10   11 ar   
    22   10   81 1    
    23   11   12 ar   
    24   11   71 1    
    25   12   13 ar   
    26   12   82 1    
    27   13   14 ar   
    28   13   15 1    
    29   14   83 1    
    30   15   16 1    
    31   15   84 1    
    32   15   85 1    
    33   16   17 1    
    34   17   18 1    
    35   17   86 1    
    36   17   87 1    
    37   18   19 1    
    38   18   37 1    
    39   18   88 1    
    40   19   20 am   BACKBONE|DICT|INTERRES
    41   19   89 1    
    42   20   21 2    
    43   20   22 1    
    44   22   23 1    
    45   22   24 1    
    46   22   90 1    
    47   23   91 1    
    48   23   92 1    
    49   23   93 1    
    50   24   25 am   BACKBONE|DICT|INTERRES
    51   24   94 1    
    52   25   26 2    
    53   25   27 1    
    54   27   28 1    
    55   27   29 1    
    56   27   95 1    
    57   28   96 1    
    58   28   97 1    
    59   28   98 1    
    60   29   30 am   BACKBONE|DICT|INTERRES
    61   29   99 1    
    62   30   31 2    
    63   30   32 1    
    64   32   33 1    
    65   32   34 1    
    66   32  100 1    
    67   33  101 1    
    68   33  102 1    
    69   33  103 1    
    70   34   35 am   BACKBONE|DICT|INTERRES
    71   34  104 1    
    72   35   36 2    
    73   37   38 2    
    74   37   39 am   BACKBONE|DICT|INTERRES
    75   39   40 1    
    76   39  105 1    
    77   40   41 1    
    78   40   42 1    
    79   40  106 1    
    80   41  107 1    
    81   41  108 1    
    82   41  109 1    
    83   42   43 2    
    84   42   44 am   BACKBONE|DICT|INTERRES
    85   44   45 1    
    86   44  110 1    
    87   45   46 1    
    88   45   47 1    
    89   45  111 1    
    90   46  112 1    
    91   46  113 1    
    92   46  114 1    
    93   47   48 2    
    94   47   49 am   BACKBONE|DICT|INTERRES
    95   49   50 1    
    96   49  115 1    
    97   50   51 1    
    98   50   52 1    
    99   50  116 1    
   100   51  117 1    
   101   51  118 1    
   102   51  119 1    
   103   52   53 2    
   104   52   54 am   BACKBONE|DICT|INTERRES
   105   54   55 1    
   106   54  120 1    
   107   55   56 1    
   108   55   57 1    
   109   55  121 1    
   110   56  122 1    
   111   56  123 1    
   112   56  124 1    
   113   57   58 2    
   114   57   59 am   BACKBONE|DICT|INTERRES
   115   59   60 1    
   116   59  125 1    
   117   60   61 1    
   118   60   62 1    
   119   60  126 1    
   120   61  127 1    
   121   61  128 1    
   122   61  129 1    
   123   62   63 2    
   124   62   64 am   BACKBONE|DICT|INTERRES
   125   64   65 1    
   126   64  130 1    
   127   65   66 1    
   128   65   69 1    
   129   65  131 1    
   130   66   67 am   BACKBONE|DICT|INTERRES
   131   66   68 2    
   132   67  132 1    
   133   67  133 1    
   134   69   70 1    
   135   69  134 1    
   136   69  135 1    
   137   70   71 1    
   138   71  136 1    
   139   71  137 1    
@<TRIPOS>SUBSTRUCTURE
     1 UNK         1 GROUP             0       ****    0 ROOT    
