@<TRIPOS>MOLECULE
3R137
137   139    1
SMALL
USER_CHARGES


@<TRIPOS>ATOM
      1 CA         27.5742   -5.5993    0.9782 C.3       0 UNK        -0.2020 
      2 C          27.6697   -4.3256    0.1531 C.2       0 UNK         0.4855 
      3 O          27.4025   -4.3572   -1.0474 O.2       0 UNK        -0.5197 
      4 N          28.0297   -3.2029    0.7912 N.am      1 UNK        -0.4892 
      5 CA         28.2548   -1.8545    0.2301 C.3       1 UNK         0.0835 
      6 C6         29.3551   -1.7863   -0.8653 C.3       12 UNK        -0.0855 
      7 S7         30.9013   -2.6253   -0.3561 S.3       12 UNK        -0.2931 
      8 C8         31.9280   -2.5277   -1.8654 C.3       12 UNK         0.0378 
      9 C9         31.4749   -3.3630   -3.0673 C.ar      12 UNK        -0.0802 
     10 C10        32.2068   -3.2477   -4.2522 C.ar      12 UNK        -0.0944 
     11 C11        31.8052   -3.9123   -5.4147 C.ar      12 UNK        -0.0787 
     12 C12        30.6719   -4.7279   -5.3856 C.ar      12 UNK        -0.0862 
     13 C13        29.9247   -4.8520   -4.2113 C.ar      12 UNK        -0.0733 
     14 C14        30.3486   -4.1970   -3.0514 C.ar      12 UNK        -0.0832 
     15 C15        28.6086   -5.6186   -4.2104 C.3       12 UNK         0.0240 
     16 S16        27.3322   -4.8707   -5.2910 S.3       12 UNK        -0.2522 
     17 C17        27.5549   -3.0649   -5.0916 C.3       12 UNK        -0.0967 
     18 CA         26.8394   -2.2925   -6.2295 C.3       5 UNK         0.0660 
     19 N          25.4174   -2.0824   -5.9600 N.am      5 UNK        -0.4015 
     20 C          24.4808   -1.9531   -6.9105 C.2       4 UNK         0.4946 
     21 O          24.6931   -2.1152   -8.1127 O.2       4 UNK        -0.5353 
     22 CA         23.0635   -1.5603   -6.4532 C.3       4 UNK         0.0277 
     23 CB         22.2135   -2.8161   -6.2008 C.3       4 UNK        -0.1981 
     24 N          23.0440   -0.7134   -5.2574 N.am      4 UNK        -0.4209 
     25 C          23.5627    0.5213   -5.1827 C.2       3 UNK         0.4942 
     26 O          24.0859    1.1040   -6.1301 O.2       3 UNK        -0.5208 
     27 CA         23.5450    1.1992   -3.8021 C.3       3 UNK         0.0250 
     28 CB         22.2349    1.9777   -3.6033 C.3       3 UNK        -0.1990 
     29 N          23.7398    0.2703   -2.6836 N.am      3 UNK        -0.4232 
     30 C          24.7922   -0.5450   -2.5243 C.2       2 UNK         0.4993 
     31 O          25.7275   -0.6329   -3.3265 O.2       2 UNK        -0.5286 
     32 CA         24.7268   -1.4804   -1.3095 C.3       2 UNK         0.0209 
     33 CB         23.9041   -2.7333   -1.6547 C.3       2 UNK        -0.1931 
     34 N          26.0482   -1.9082   -0.8585 N.am      2 UNK        -0.4546 
     35 C          26.9568   -1.1526   -0.2325 C.2       1 UNK         0.5154 
     36 O          26.7854    0.0391    0.0295 O.2       1 UNK        -0.5181 
     37 C          27.5174   -0.9432   -6.5236 C.2       5 UNK         0.5014 
     38 O          28.2064   -0.8303   -7.5372 O.2       5 UNK        -0.5248 
     39 N          27.2918    0.0650   -5.6652 N.am      6 UNK        -0.4434 
     40 CA         27.8827    1.4068   -5.7776 C.3       6 UNK         0.0363 
     41 CB         27.4320    2.2711   -4.5917 C.3       6 UNK        -0.1936 
     42 C          27.5866    2.1229   -7.1102 C.2       6 UNK         0.5081 
     43 O          28.4400    2.8645   -7.5986 O.2       6 UNK        -0.5248 
     44 N          26.4189    1.8423   -7.7075 N.am      7 UNK        -0.4718 
     45 CA         25.9909    2.2974   -9.0356 C.3       7 UNK         0.0273 
     46 CB         24.5712    1.7751   -9.3116 C.3       7 UNK        -0.1935 
     47 C          26.9316    1.9167  -10.1972 C.2       7 UNK         0.5018 
     48 O          26.8582    2.5547  -11.2482 O.2       7 UNK        -0.5186 
     49 N          27.8112    0.9215  -10.0005 N.am      8 UNK        -0.4240 
     50 CA         28.8760    0.5625  -10.9425 C.3       8 UNK         0.0235 
     51 CB         29.4272   -0.8256  -10.5796 C.3       8 UNK        -0.2000 
     52 C          30.0222    1.5925  -11.0044 C.2       8 UNK         0.4941 
     53 O          30.8558    1.4925  -11.9062 O.2       8 UNK        -0.5273 
     54 N          30.0753    2.5376  -10.0502 N.am      9 UNK        -0.4262 
     55 CA         31.0401    3.6356   -9.8872 C.3       9 UNK         0.0264 
     56 CB         31.0551    4.5770  -11.1073 C.3       9 UNK        -0.1955 
     57 C          32.4577    3.1744   -9.5121 C.2       9 UNK         0.5031 
     58 O          33.0119    3.6742   -8.5325 O.2       9 UNK        -0.5390 
     59 N          33.0021    2.1982  -10.2504 N.am      10 UNK        -0.4204 
     60 CA         34.2890    1.5416   -9.9867 C.3       10 UNK         0.0237 
     61 CB         34.6081    0.5750  -11.1383 C.3       10 UNK        -0.1985 
     62 C          34.3310    0.8037   -8.6348 C.2       10 UNK         0.4970 
     63 O          35.4039    0.6777   -8.0440 O.2       10 UNK        -0.4914 
     64 N          33.1586    0.3613   -8.1667 N.am      11 UNK        -0.4285 
     65 CA         32.9225   -0.1917   -6.8283 C.3       11 UNK         0.1007 
     66 C          32.9462    0.8597   -5.6786 C.2       11 UNK         0.5703 
     67 N          32.9993    2.1602   -5.9459 N.am      11 UNK        -0.7361 
     68 O          32.9287    0.4815   -4.5100 O.2       11 UNK        -0.4986 
     69 C69        31.6088   -1.0124   -6.8046 C.3       12 UNK        -0.0947 
     70 S70        31.7046   -2.5258   -7.8233 S.3       12 UNK        -0.2240 
     71 C71        32.5622   -3.6960   -6.7161 C.3       12 UNK         0.0194 
     72 H72        28.2524   -6.3533    0.5795 H         1 UNK         0.0906 
     73 H73        26.5605   -5.9970    0.9374 H         1 UNK         0.0906 
     74 H74        27.8317   -5.4303    2.0235 H         1 UNK         0.0906 
     75 H75        28.2003   -3.2618    1.7858 H         1 UNK         0.3140 
     76 H76        28.6182   -1.2639    1.0731 H         1 UNK         0.1085 
     77 H77        29.5943   -0.7454   -1.0914 H         1 UNK         0.0836 
     78 H78        28.9876   -2.2139   -1.7982 H         1 UNK         0.0836 
     79 H79        31.9951   -1.4810   -2.1674 H         1 UNK         0.0731 
     80 H80        32.9405   -2.8345   -1.5991 H         1 UNK         0.0731 
     81 H81        33.0705   -2.5966   -4.2825 H         1 UNK         0.1312 
     82 H82        30.3365   -5.2159   -6.2907 H         1 UNK         0.1406 
     83 H83        29.7632   -4.3094   -2.1513 H         1 UNK         0.1631 
     84 H84        28.2046   -5.6896   -3.2000 H         1 UNK         0.0717 
     85 H85        28.7897   -6.6437   -4.5357 H         1 UNK         0.0717 
     86 H86        27.2020   -2.7594   -4.1049 H         1 UNK         0.0934 
     87 H87        28.6213   -2.8385   -5.1112 H         1 UNK         0.0934 
     88 H88        26.9384   -2.8795   -7.1460 H         1 UNK         0.0739 
     89 H89        25.1739   -1.8767   -4.9999 H         1 UNK         0.3093 
     90 H90        22.6053   -0.9929   -7.2664 H         1 UNK         0.0818 
     91 H91        22.1901   -3.4546   -7.0852 H         1 UNK         0.0819 
     92 H92        22.6082   -3.4141   -5.3783 H         1 UNK         0.0819 
     93 H93        21.1812   -2.5570   -5.9644 H         1 UNK         0.0819 
     94 H94        22.6262   -1.1059   -4.4267 H         1 UNK         0.3041 
     95 H95        24.3675    1.9140   -3.7747 H         1 UNK         0.0784 
     96 H96        22.0791    2.6912   -4.4139 H         1 UNK         0.0793 
     97 H97        21.3683    1.3155   -3.5812 H         1 UNK         0.0793 
     98 H98        22.2476    2.5466   -2.6733 H         1 UNK         0.0793 
     99 H99        23.0110    0.2594   -1.9841 H         1 UNK         0.3024 
    100 H100       24.2451   -0.9499   -0.4849 H         1 UNK         0.1171 
    101 H101       24.3572   -3.3003   -2.4696 H         1 UNK         0.0786 
    102 H102       23.8177   -3.3986   -0.7952 H         1 UNK         0.0786 
    103 H103       22.8903   -2.4721   -1.9608 H         1 UNK         0.0786 
    104 H104       26.3217   -2.8670   -1.0619 H         1 UNK         0.2977 
    105 H105       26.7139   -0.1132   -4.8458 H         1 UNK         0.3127 
    106 H106       28.9655    1.2804   -5.7129 H         1 UNK         0.0770 
    107 H107       27.9672    3.2215   -4.5805 H         1 UNK         0.0814 
    108 H108       26.3690    2.5007   -4.6487 H         1 UNK         0.0814 
    109 H109       27.6228    1.7780   -3.6381 H         1 UNK         0.0814 
    110 H110       25.7434    1.2871   -7.1892 H         1 UNK         0.2983 
    111 H111       25.9552    3.3883   -9.0060 H         1 UNK         0.0947 
    112 H112       24.5277    0.6860   -9.2636 H         1 UNK         0.0806 
    113 H113       24.2249    2.0743  -10.3019 H         1 UNK         0.0806 
    114 H114       23.8563    2.1714   -8.5905 H         1 UNK         0.0806 
    115 H115       27.8096    0.4315   -9.1100 H         1 UNK         0.3000 
    116 H116       28.4402    0.5043  -11.9421 H         1 UNK         0.0850 
    117 H117       30.1659   -1.1589  -11.3098 H         1 UNK         0.0810 
    118 H118       28.6360   -1.5750  -10.5530 H         1 UNK         0.0810 
    119 H119       29.9143   -0.8207   -9.6045 H         1 UNK         0.0810 
    120 H120       29.3684    2.5045   -9.3196 H         1 UNK         0.3040 
    121 H121       30.6695    4.2147   -9.0394 H         1 UNK         0.0766 
    122 H122       31.4319    4.0851  -12.0043 H         1 UNK         0.0812 
    123 H123       31.6940    5.4413  -10.9215 H         1 UNK         0.0812 
    124 H124       30.0561    4.9539  -11.3271 H         1 UNK         0.0812 
    125 H125       32.4421    1.8455  -11.0255 H         1 UNK         0.3205 
    126 H126       35.0578    2.3166   -9.9609 H         1 UNK         0.0754 
    127 H127       35.5705    0.0852  -10.9828 H         1 UNK         0.0769 
    128 H128       34.6632    1.0995  -12.0925 H         1 UNK         0.0769 
    129 H129       33.8533   -0.2076  -11.2288 H         1 UNK         0.0769 
    130 H130       32.3375    0.5012   -8.7338 H         1 UNK         0.2981 
    131 H131       33.7463   -0.8722   -6.6070 H         1 UNK         0.0541 
    132 H132       33.0205    2.8111   -5.1776 H         1 UNK         0.3459 
    133 H133       33.0331    2.5111   -6.8963 H         1 UNK         0.3459 
    134 H134       30.7892   -0.4020   -7.1856 H         1 UNK         0.0612 
    135 H135       31.3110   -1.2783   -5.7913 H         1 UNK         0.0612 
    136 H136       32.6770   -4.6496   -7.2333 H         1 UNK         0.0624 
    137 H137       33.5718   -3.3326   -6.5197 H         1 UNK         0.0624 
@<TRIPOS>BOND
     1    1    2 1    
     2    1   72 1    
     3    1   73 1    
     4    1   74 1    
     5    2    3 2    
     6    2    4 am   BACKBONE|DICT|INTERRES
     7    4    5 1    
     8    4   75 1    
     9    5    6 1    
    10    5   35 1    
    11    5   76 1    
    12    6    7 1    
    13    6   77 1    
    14    6   78 1    
    15    7    8 1    
    16    8    9 1    
    17    8   79 1    
    18    8   80 1    
    19    9   10 ar   
    20    9   14 ar   
    21   10   11 ar   
    22   10   81 1    
    23   11   12 ar   
    24   11   71 1    
    25   12   13 ar   
    26   12   82 1    
    27   13   14 ar   
    28   13   15 1    
    29   14   83 1    
    30   15   16 1    
    31   15   84 1    
    32   15   85 1    
    33   16   17 1    
    34   17   18 1    
    35   17   86 1    
    36   17   87 1    
    37   18   19 1    
    38   18   37 1    
    39   18   88 1    
    40   19   20 am   BACKBONE|DICT|INTERRES
    41   19   89 1    
    42   20   21 2    
    43   20   22 1    
    44   22   23 1    
    45   22   24 1    
    46   22   90 1    
    47   23   91 1    
    48   23   92 1    
    49   23   93 1    
    50   24   25 am   BACKBONE|DICT|INTERRES
    51   24   94 1    
    52   25   26 2    
    53   25   27 1    
    54   27   28 1    
    55   27   29 1    
    56   27   95 1    
    57   28   96 1    
    58   28   97 1    
    59   28   98 1    
    60   29   30 am   BACKBONE|DICT|INTERRES
    61   29   99 1    
    62   30   31 2    
    63   30   32 1    
    64   32   33 1    
    65   32   34 1    
    66   32  100 1    
    67   33  101 1    
    68   33  102 1    
    69   33  103 1    
    70   34   35 am   BACKBONE|DICT|INTERRES
    71   34  104 1    
    72   35   36 2    
    73   37   38 2    
    74   37   39 am   BACKBONE|DICT|INTERRES
    75   39   40 1    
    76   39  105 1    
    77   40   41 1    
    78   40   42 1    
    79   40  106 1    
    80   41  107 1    
    81   41  108 1    
    82   41  109 1    
    83   42   43 2    
    84   42   44 am   BACKBONE|DICT|INTERRES
    85   44   45 1    
    86   44  110 1    
    87   45   46 1    
    88   45   47 1    
    89   45  111 1    
    90   46  112 1    
    91   46  113 1    
    92   46  114 1    
    93   47   48 2    
    94   47   49 am   BACKBONE|DICT|INTERRES
    95   49   50 1    
    96   49  115 1    
    97   50   51 1    
    98   50   52 1    
    99   50  116 1    
   100   51  117 1    
   101   51  118 1    
   102   51  119 1    
   103   52   53 2    
   104   52   54 am   BACKBONE|DICT|INTERRES
   105   54   55 1    
   106   54  120 1    
   107   55   56 1    
   108   55   57 1    
   109   55  121 1    
   110   56  122 1    
   111   56  123 1    
   112   56  124 1    
   113   57   58 2    
   114   57   59 am   BACKBONE|DICT|INTERRES
   115   59   60 1    
   116   59  125 1    
   117   60   61 1    
   118   60   62 1    
   119   60  126 1    
   120   61  127 1    
   121   61  128 1    
   122   61  129 1    
   123   62   63 2    
   124   62   64 am   BACKBONE|DICT|INTERRES
   125   64   65 1    
   126   64  130 1    
   127   65   66 1    
   128   65   69 1    
   129   65  131 1    
   130   66   67 am   BACKBONE|DICT|INTERRES
   131   66   68 2    
   132   67  132 1    
   133   67  133 1    
   134   69   70 1    
   135   69  134 1    
   136   69  135 1    
   137   70   71 1    
   138   71  136 1    
   139   71  137 1    
@<TRIPOS>SUBSTRUCTURE
     1 UNK         1 GROUP             0       ****    0 ROOT    
