@<TRIPOS>MOLECULE
3R137
137   139    1
SMALL
USER_CHARGES


@<TRIPOS>ATOM
      1 CA         26.8916   -6.4474    0.0181 C.3       0 UNK        -0.2020 
      2 C          27.2425   -4.9855   -0.2130 C.2       0 UNK         0.4855 
      3 O          26.8683   -4.1294    0.5902 O.2       0 UNK        -0.5197 
      4 N          27.9558   -4.6866   -1.3060 N.am      1 UNK        -0.4892 
      5 CA         28.3838   -3.3392   -1.6955 C.3       1 UNK         0.0835 
      6 C6         29.6001   -3.3711   -2.6593 C.3       12 UNK        -0.0855 
      7 S7         31.1315   -3.9158   -1.8356 S.3       12 UNK        -0.2931 
      8 C8         31.8027   -2.3371   -1.2083 C.3       12 UNK         0.0378 
      9 C9         32.1401   -1.3498   -2.3203 C.ar      12 UNK        -0.0802 
     10 C10        33.1809   -1.6274   -3.2108 C.ar      12 UNK        -0.0944 
     11 C11        33.5098   -0.7189   -4.2193 C.ar      12 UNK        -0.0787 
     12 C12        32.7756    0.4632   -4.3458 C.ar      12 UNK        -0.0862 
     13 C13        31.7266    0.7589   -3.4701 C.ar      12 UNK        -0.0733 
     14 C14        31.4292   -0.1493   -2.4436 C.ar      12 UNK        -0.0832 
     15 C15        30.9922    2.0906   -3.6570 C.3       12 UNK         0.0240 
     16 S16        29.3760    2.2728   -2.8187 S.3       12 UNK        -0.2522 
     17 C17        28.3466    0.9281   -3.5001 C.3       12 UNK        -0.0967 
     18 CA         28.2234    0.8720   -5.0422 C.3       5 UNK         0.0660 
     19 N          27.6690   -0.4096   -5.4684 N.am      5 UNK        -0.4015 
     20 C          27.5835   -0.8527   -6.7268 C.2       4 UNK         0.4946 
     21 O          28.0684   -0.2666   -7.6937 O.2       4 UNK        -0.5353 
     22 CA         26.8200   -2.1690   -6.9365 C.3       4 UNK         0.0277 
     23 CB         27.7641   -3.3695   -6.7901 C.3       4 UNK        -0.1981 
     24 N          25.7018   -2.3149   -6.0019 N.am      4 UNK        -0.4209 
     25 C          24.5445   -1.6480   -6.0990 C.2       3 UNK         0.4942 
     26 O          24.2875   -0.8542   -7.0030 O.2       3 UNK        -0.5208 
     27 CA         23.5083   -1.8886   -4.9874 C.3       3 UNK         0.0250 
     28 CB         22.7166   -3.1788   -5.2546 C.3       3 UNK        -0.1990 
     29 N          24.0885   -1.9364   -3.6411 N.am      3 UNK        -0.4232 
     30 C          24.6836   -0.8959   -3.0422 C.2       2 UNK         0.4993 
     31 O          24.8518    0.1995   -3.5789 O.2       2 UNK        -0.5286 
     32 CA         25.2138   -1.1181   -1.6145 C.3       2 UNK         0.0209 
     33 CB         24.0587   -1.3841   -0.6338 C.3       2 UNK        -0.1931 
     34 N          26.2516   -2.1470   -1.4363 N.am      2 UNK        -0.4546 
     35 C          27.2145   -2.5268   -2.2885 C.2       1 UNK         0.5154 
     36 O          27.2231   -2.2540   -3.4874 O.2       1 UNK        -0.5181 
     37 C          27.4060    2.0391   -5.6300 C.2       5 UNK         0.5014 
     38 O          27.9832    2.9199   -6.2717 O.2       5 UNK        -0.5248 
     39 N          26.0746    1.9781   -5.4624 N.am      6 UNK        -0.4434 
     40 CA         25.1064    2.9166   -6.0355 C.3       6 UNK         0.0363 
     41 CB         23.6993    2.5895   -5.5120 C.3       6 UNK        -0.1936 
     42 C          25.1145    2.9433   -7.5732 C.2       6 UNK         0.5081 
     43 O          24.9644    4.0181   -8.1552 O.2       6 UNK        -0.5248 
     44 N          25.3418    1.7869   -8.2123 N.am      7 UNK        -0.4718 
     45 CA         25.5004    1.6257   -9.6630 C.3       7 UNK         0.0273 
     46 CB         25.2266    0.1576  -10.0378 C.3       7 UNK        -0.1935 
     47 C          26.8706    2.1182  -10.1817 C.2       7 UNK         0.5018 
     48 O          27.5303    1.4092  -10.9434 O.2       7 UNK        -0.5186 
     49 N          27.2605    3.3328   -9.7687 N.am      8 UNK        -0.4240 
     50 CA         28.4784    4.0654  -10.1303 C.3       8 UNK         0.0235 
     51 CB         28.4055    4.5283  -11.6016 C.3       8 UNK        -0.2000 
     52 C          29.7792    3.3044   -9.8030 C.2       8 UNK         0.4941 
     53 O          30.7023    3.3029  -10.6200 O.2       8 UNK        -0.5273 
     54 N          29.8308    2.6927   -8.6083 N.am      9 UNK        -0.4262 
     55 CA         30.9563    1.9243   -8.0623 C.3       9 UNK         0.0264 
     56 CB         32.1389    2.8555   -7.7194 C.3       9 UNK        -0.1955 
     57 C          31.3630    0.7334   -8.9519 C.2       9 UNK         0.5031 
     58 O          32.5110    0.6504   -9.3935 O.2       9 UNK        -0.5390 
     59 N          30.4092   -0.1764   -9.1905 N.am      10 UNK        -0.4204 
     60 CA         30.6337   -1.4439   -9.8924 C.3       10 UNK         0.0237 
     61 CB         29.2916   -1.9755  -10.4224 C.3       10 UNK        -0.1985 
     62 C          31.3376   -2.4971   -9.0134 C.2       10 UNK         0.4970 
     63 O          31.9318   -3.4269   -9.5585 O.2       10 UNK        -0.4914 
     64 N          31.2557   -2.3337   -7.6847 N.am      11 UNK        -0.4285 
     65 CA         31.9366   -3.1130   -6.6306 C.3       11 UNK         0.1007 
     66 C          31.4689   -4.5892   -6.4512 C.2       11 UNK         0.5703 
     67 N          30.6130   -5.1373   -7.3036 N.am      11 UNK        -0.7361 
     68 O          31.8725   -5.2467   -5.4958 O.2       11 UNK        -0.4986 
     69 C69        33.4892   -3.0325   -6.7097 C.3       12 UNK        -0.0947 
     70 S70        34.1379   -1.3326   -6.8513 S.3       12 UNK        -0.2240 
     71 C71        34.6814   -0.9889   -5.1513 C.3       12 UNK         0.0194 
     72 H72        27.2886   -7.0916   -0.7662 H         1 UNK         0.0906 
     73 H73        27.2984   -6.7839    0.9713 H         1 UNK         0.0906 
     74 H74        25.8096   -6.5734    0.0458 H         1 UNK         0.0906 
     75 H75        28.2325   -5.4274   -1.9349 H         1 UNK         0.3140 
     76 H76        28.6960   -2.8045   -0.7955 H         1 UNK         0.1085 
     77 H77        29.7799   -2.3927   -3.1068 H         1 UNK         0.0836 
     78 H78        29.4046   -4.0399   -3.4997 H         1 UNK         0.0836 
     79 H79        32.7069   -2.5455   -0.6346 H         1 UNK         0.0731 
     80 H80        31.0917   -1.9025   -0.5041 H         1 UNK         0.0731 
     81 H81        33.7396   -2.5479   -3.1089 H         1 UNK         0.1312 
     82 H82        33.0371    1.1643   -5.1262 H         1 UNK         0.1406 
     83 H83        30.6475    0.0738   -1.7318 H         1 UNK         0.1631 
     84 H84        30.8591    2.2980   -4.7191 H         1 UNK         0.0717 
     85 H85        31.6437    2.8817   -3.2838 H         1 UNK         0.0717 
     86 H86        28.7637   -0.0105   -3.1384 H         1 UNK         0.0934 
     87 H87        27.3606    0.9970   -3.0385 H         1 UNK         0.0934 
     88 H88        29.2237    0.9159   -5.4671 H         1 UNK         0.0739 
     89 H89        27.3100   -1.0152   -4.7312 H         1 UNK         0.3093 
     90 H90        26.4228   -2.1699   -7.9532 H         1 UNK         0.0818 
     91 H91        28.2260   -3.4108   -5.8029 H         1 UNK         0.0819 
     92 H92        27.2403   -4.3110   -6.9553 H         1 UNK         0.0819 
     93 H93        28.5650   -3.3155   -7.5246 H         1 UNK         0.0819 
     94 H94        25.8694   -2.8738   -5.1753 H         1 UNK         0.3041 
     95 H95        22.8070   -1.0514   -5.0131 H         1 UNK         0.0784 
     96 H96        22.2608   -3.1579   -6.2456 H         1 UNK         0.0793 
     97 H97        23.3534   -4.0631   -5.2073 H         1 UNK         0.0793 
     98 H98        21.9100   -3.3061   -4.5323 H         1 UNK         0.0793 
     99 H99        24.0195   -2.8087   -3.1374 H         1 UNK         0.3024 
    100 H100       25.6765   -0.1745   -1.3185 H         1 UNK         0.1171 
    101 H101       24.3996   -1.3364    0.4007 H         1 UNK         0.0786 
    102 H102       23.2675   -0.6409   -0.7451 H         1 UNK         0.0786 
    103 H103       23.6109   -2.3660   -0.7905 H         1 UNK         0.0786 
    104 H104       26.3235   -2.5379   -0.5013 H         1 UNK         0.2977 
    105 H105       25.6851    1.2309   -4.8892 H         1 UNK         0.3127 
    106 H106       25.3765    3.9162   -5.6890 H         1 UNK         0.0770 
    107 H107       23.3887    1.5829   -5.7955 H         1 UNK         0.0814 
    108 H108       22.9607    3.2855   -5.9120 H         1 UNK         0.0814 
    109 H109       23.6547    2.6585   -4.4250 H         1 UNK         0.0814 
    110 H110       25.4225    0.9422   -7.6589 H         1 UNK         0.2983 
    111 H111       24.7423    2.2367  -10.1576 H         1 UNK         0.0947 
    112 H112       25.2462    0.0180  -11.1194 H         1 UNK         0.0806 
    113 H113       24.2463   -0.1672   -9.6889 H         1 UNK         0.0806 
    114 H114       25.9751   -0.5091   -9.6099 H         1 UNK         0.0806 
    115 H115       26.6229    3.8156   -9.1412 H         1 UNK         0.3000 
    116 H116       28.4906    4.9597   -9.5054 H         1 UNK         0.0850 
    117 H117       29.2466    5.1764  -11.8513 H         1 UNK         0.0810 
    118 H118       27.4945    5.0944  -11.7954 H         1 UNK         0.0810 
    119 H119       28.4292    3.6838  -12.2914 H         1 UNK         0.0810 
    120 H120       29.0183    2.7592   -8.0007 H         1 UNK         0.3040 
    121 H121       30.6089    1.4916   -7.1261 H         1 UNK         0.0766 
    122 H122       31.8412    3.6303   -7.0130 H         1 UNK         0.0812 
    123 H123       32.5403    3.3459   -8.6067 H         1 UNK         0.0812 
    124 H124       32.9571    2.2966   -7.2641 H         1 UNK         0.0812 
    125 H125       29.4823   -0.0411   -8.7833 H         1 UNK         0.3205 
    126 H126       31.2813   -1.2527  -10.7508 H         1 UNK         0.0754 
    127 H127       29.4284   -2.9069  -10.9735 H         1 UNK         0.0769 
    128 H128       28.8279   -1.2609  -11.1033 H         1 UNK         0.0769 
    129 H129       28.5828   -2.1709   -9.6186 H         1 UNK         0.0769 
    130 H130       30.7222   -1.5461   -7.3515 H         1 UNK         0.2981 
    131 H131       31.6412   -2.6227   -5.7022 H         1 UNK         0.0541 
    132 H132       30.3361   -4.6391   -8.1332 H         1 UNK         0.3459 
    133 H133       30.3193   -6.0903   -7.1609 H         1 UNK         0.3459 
    134 H134       33.9408   -3.5072   -5.8368 H         1 UNK         0.0612 
    135 H135       33.8507   -3.5935   -7.5729 H         1 UNK         0.0612 
    136 H136       35.2951   -1.8144   -4.7874 H         1 UNK         0.0624 
    137 H137       35.3305   -0.1122   -5.1658 H         1 UNK         0.0624 
@<TRIPOS>BOND
     1    1    2 1    
     2    1   72 1    
     3    1   73 1    
     4    1   74 1    
     5    2    3 2    
     6    2    4 am   BACKBONE|DICT|INTERRES
     7    4    5 1    
     8    4   75 1    
     9    5    6 1    
    10    5   35 1    
    11    5   76 1    
    12    6    7 1    
    13    6   77 1    
    14    6   78 1    
    15    7    8 1    
    16    8    9 1    
    17    8   79 1    
    18    8   80 1    
    19    9   10 ar   
    20    9   14 ar   
    21   10   11 ar   
    22   10   81 1    
    23   11   12 ar   
    24   11   71 1    
    25   12   13 ar   
    26   12   82 1    
    27   13   14 ar   
    28   13   15 1    
    29   14   83 1    
    30   15   16 1    
    31   15   84 1    
    32   15   85 1    
    33   16   17 1    
    34   17   18 1    
    35   17   86 1    
    36   17   87 1    
    37   18   19 1    
    38   18   37 1    
    39   18   88 1    
    40   19   20 am   BACKBONE|DICT|INTERRES
    41   19   89 1    
    42   20   21 2    
    43   20   22 1    
    44   22   23 1    
    45   22   24 1    
    46   22   90 1    
    47   23   91 1    
    48   23   92 1    
    49   23   93 1    
    50   24   25 am   BACKBONE|DICT|INTERRES
    51   24   94 1    
    52   25   26 2    
    53   25   27 1    
    54   27   28 1    
    55   27   29 1    
    56   27   95 1    
    57   28   96 1    
    58   28   97 1    
    59   28   98 1    
    60   29   30 am   BACKBONE|DICT|INTERRES
    61   29   99 1    
    62   30   31 2    
    63   30   32 1    
    64   32   33 1    
    65   32   34 1    
    66   32  100 1    
    67   33  101 1    
    68   33  102 1    
    69   33  103 1    
    70   34   35 am   BACKBONE|DICT|INTERRES
    71   34  104 1    
    72   35   36 2    
    73   37   38 2    
    74   37   39 am   BACKBONE|DICT|INTERRES
    75   39   40 1    
    76   39  105 1    
    77   40   41 1    
    78   40   42 1    
    79   40  106 1    
    80   41  107 1    
    81   41  108 1    
    82   41  109 1    
    83   42   43 2    
    84   42   44 am   BACKBONE|DICT|INTERRES
    85   44   45 1    
    86   44  110 1    
    87   45   46 1    
    88   45   47 1    
    89   45  111 1    
    90   46  112 1    
    91   46  113 1    
    92   46  114 1    
    93   47   48 2    
    94   47   49 am   BACKBONE|DICT|INTERRES
    95   49   50 1    
    96   49  115 1    
    97   50   51 1    
    98   50   52 1    
    99   50  116 1    
   100   51  117 1    
   101   51  118 1    
   102   51  119 1    
   103   52   53 2    
   104   52   54 am   BACKBONE|DICT|INTERRES
   105   54   55 1    
   106   54  120 1    
   107   55   56 1    
   108   55   57 1    
   109   55  121 1    
   110   56  122 1    
   111   56  123 1    
   112   56  124 1    
   113   57   58 2    
   114   57   59 am   BACKBONE|DICT|INTERRES
   115   59   60 1    
   116   59  125 1    
   117   60   61 1    
   118   60   62 1    
   119   60  126 1    
   120   61  127 1    
   121   61  128 1    
   122   61  129 1    
   123   62   63 2    
   124   62   64 am   BACKBONE|DICT|INTERRES
   125   64   65 1    
   126   64  130 1    
   127   65   66 1    
   128   65   69 1    
   129   65  131 1    
   130   66   67 am   BACKBONE|DICT|INTERRES
   131   66   68 2    
   132   67  132 1    
   133   67  133 1    
   134   69   70 1    
   135   69  134 1    
   136   69  135 1    
   137   70   71 1    
   138   71  136 1    
   139   71  137 1    
@<TRIPOS>SUBSTRUCTURE
     1 UNK         1 GROUP             0       ****    0 ROOT    
