@<TRIPOS>MOLECULE
3R137
137   139    1
SMALL
USER_CHARGES


@<TRIPOS>ATOM
      1 CA         28.8527   -5.7888   -0.0078 C.3       0 UNK        -0.2020 
      2 C          27.8067   -4.8031    0.4910 C.2       0 UNK         0.4855 
      3 O          26.8718   -5.1996    1.1867 O.2       0 UNK        -0.5197 
      4 N          27.9566   -3.5198    0.1387 N.am      1 UNK        -0.4892 
      5 CA         27.0359   -2.4330    0.5007 C.3       1 UNK         0.0835 
      6 C6         27.7188   -1.0442    0.3801 C.3       12 UNK        -0.0855 
      7 S7         28.2301   -0.6130   -1.3213 S.3       12 UNK        -0.2931 
      8 C8         30.0081   -0.9869   -1.2908 C.3       12 UNK         0.0378 
      9 C9         30.5244   -1.2731   -2.6923 C.ar      12 UNK        -0.0802 
     10 C10        31.4218   -0.3997   -3.3144 C.ar      12 UNK        -0.0944 
     11 C11        31.9252   -0.6919   -4.5858 C.ar      12 UNK        -0.0787 
     12 C12        31.5138   -1.8569   -5.2409 C.ar      12 UNK        -0.0862 
     13 C13        30.6129   -2.7341   -4.6310 C.ar      12 UNK        -0.0733 
     14 C14        30.1231   -2.4366   -3.3569 C.ar      12 UNK        -0.0832 
     15 C15        30.2065   -4.0262   -5.3257 C.3       12 UNK         0.0240 
     16 S16        29.1611   -3.7406   -6.7867 S.3       12 UNK        -0.2522 
     17 C17        27.6182   -3.1037   -6.0524 C.3       12 UNK        -0.0967 
     18 CA         27.0327   -1.9419   -6.8914 C.3       5 UNK         0.0660 
     19 N          25.5746   -1.8639   -6.7806 N.am      5 UNK        -0.4015 
     20 C          24.7829   -1.2375   -7.6628 C.2       4 UNK         0.4946 
     21 O          25.1985   -0.6751   -8.6753 O.2       4 UNK        -0.5353 
     22 CA         23.2766   -1.2059   -7.3517 C.3       4 UNK         0.0277 
     23 CB         22.5935   -2.4866   -7.8570 C.3       4 UNK        -0.1981 
     24 N          22.9929   -1.0256   -5.9262 N.am      4 UNK        -0.4209 
     25 C          23.2881    0.0849   -5.2357 C.2       3 UNK         0.4942 
     26 O          23.7780    1.0927   -5.7413 O.2       3 UNK        -0.5208 
     27 CA         23.0441    0.0516   -3.7180 C.3       3 UNK         0.0250 
     28 CB         21.6100    0.4988   -3.3938 C.3       3 UNK        -0.1990 
     29 N          23.3075   -1.2500   -3.0932 N.am      3 UNK        -0.4232 
     30 C          24.4764   -1.9042   -3.1393 C.2       2 UNK         0.4993 
     31 O          25.4538   -1.5279   -3.7923 O.2       2 UNK        -0.5286 
     32 CA         24.5615   -3.2218   -2.3570 C.3       2 UNK         0.0209 
     33 CB         24.7428   -4.4119   -3.3139 C.3       2 UNK        -0.1931 
     34 N          25.6862   -3.1758   -1.4266 N.am      2 UNK        -0.4546 
     35 C          25.6996   -2.4857   -0.2768 C.2       1 UNK         0.5154 
     36 O          24.7127   -1.9026    0.1763 O.2       1 UNK        -0.5181 
     37 C          27.6876   -0.5858   -6.5658 C.2       5 UNK         0.5014 
     38 O          28.6211   -0.1829   -7.2625 O.2       5 UNK        -0.5248 
     39 N          27.1444    0.1224   -5.5633 N.am      6 UNK        -0.4434 
     40 CA         27.5122    1.4998   -5.2272 C.3       6 UNK         0.0363 
     41 CB         26.7881    1.9355   -3.9440 C.3       6 UNK        -0.1936 
     42 C          27.2179    2.4870   -6.3711 C.2       6 UNK         0.5081 
     43 O          28.0607    3.3340   -6.6650 O.2       6 UNK        -0.5248 
     44 N          26.0448    2.3479   -7.0079 N.am      7 UNK        -0.4718 
     45 CA         25.6265    3.1350   -8.1715 C.3       7 UNK         0.0273 
     46 CB         24.1360    2.8927   -8.4576 C.3       7 UNK        -0.1935 
     47 C          26.4728    2.8513   -9.4231 C.2       7 UNK         0.5018 
     48 O          26.8226    3.7932  -10.1356 O.2       7 UNK        -0.5186 
     49 N          26.8028    1.5722   -9.6598 N.am      8 UNK        -0.4240 
     50 CA         27.7192    1.1381  -10.7196 C.3       8 UNK         0.0235 
     51 CB         27.6621   -0.3918  -10.8589 C.3       8 UNK        -0.2000 
     52 C          29.1687    1.5978  -10.4830 C.2       8 UNK         0.4941 
     53 O          29.8785    1.8616  -11.4542 O.2       8 UNK        -0.5273 
     54 N          29.5657    1.6842   -9.2040 N.am      9 UNK        -0.4262 
     55 CA         30.8789    2.0801   -8.6905 C.3       9 UNK         0.0264 
     56 CB         31.1735    3.5618   -9.0044 C.3       9 UNK        -0.1955 
     57 C          31.9874    1.1248   -9.1613 C.2       9 UNK         0.5031 
     58 O          33.0283    1.5700   -9.6513 O.2       9 UNK        -0.5390 
     59 N          31.7474   -0.1841   -8.9965 N.am      10 UNK        -0.4204 
     60 CA         32.6280   -1.2833   -9.4144 C.3       10 UNK         0.0237 
     61 CB         31.7979   -2.5783   -9.4879 C.3       10 UNK        -0.1985 
     62 C          33.8951   -1.4357   -8.5406 C.2       10 UNK         0.4970 
     63 O          34.2038   -2.5396   -8.0891 O.2       10 UNK        -0.4914 
     64 N          34.5955   -0.3202   -8.3195 N.am      11 UNK        -0.4285 
     65 CA         35.8339   -0.1882   -7.5383 C.3       11 UNK         0.1007 
     66 C          36.9898    0.4594   -8.3559 C.2       11 UNK         0.5703 
     67 N          36.8166    0.7695   -9.6364 N.am      11 UNK        -0.7361 
     68 O          38.0796    0.6648   -7.8264 O.2       11 UNK        -0.4986 
     69 C69        35.5783    0.5653   -6.2022 C.3       12 UNK        -0.0947 
     70 S70        34.6210   -0.4332   -5.0167 S.3       12 UNK        -0.2240 
     71 C71        32.9419    0.2259   -5.2428 C.3       12 UNK         0.0194 
     72 H72        28.3828   -6.5532   -0.6262 H         1 UNK         0.0906 
     73 H73        29.3344   -6.2826    0.8358 H         1 UNK         0.0906 
     74 H74        29.6261   -5.3010   -0.6007 H         1 UNK         0.0906 
     75 H75        28.7448   -3.2461   -0.4280 H         1 UNK         0.3140 
     76 H76        26.7723   -2.5694    1.5522 H         1 UNK         0.1085 
     77 H77        28.5841   -0.9962    1.0432 H         1 UNK         0.0836 
     78 H78        27.0426   -0.2641    0.7354 H         1 UNK         0.0836 
     79 H79        30.5404   -0.1487   -0.8382 H         1 UNK         0.0731 
     80 H80        30.2043   -1.8532   -0.6584 H         1 UNK         0.0731 
     81 H81        31.7455    0.4961   -2.8020 H         1 UNK         0.1312 
     82 H82        31.9121   -2.0927   -6.2179 H         1 UNK         0.1406 
     83 H83        29.4316   -3.1143   -2.8764 H         1 UNK         0.1631 
     84 H84        29.6847   -4.6947   -4.6390 H         1 UNK         0.0717 
     85 H85        31.1066   -4.5561   -5.6404 H         1 UNK         0.0717 
     86 H86        26.9201   -3.9417   -6.0308 H         1 UNK         0.0934 
     87 H87        27.7640   -2.8113   -5.0108 H         1 UNK         0.0934 
     88 H88        27.2449   -2.1503   -7.9426 H         1 UNK         0.0739 
     89 H89        25.1706   -2.2137   -5.9230 H         1 UNK         0.3093 
     90 H90        22.8477   -0.3569   -7.8885 H         1 UNK         0.0818 
     91 H91        22.7773   -2.6304   -8.9228 H         1 UNK         0.0819 
     92 H92        22.9601   -3.3747   -7.3407 H         1 UNK         0.0819 
     93 H93        21.5129   -2.4401   -7.7208 H         1 UNK         0.0819 
     94 H94        22.5796   -1.8037   -5.4333 H         1 UNK         0.3041 
     95 H95        23.7325    0.7682   -3.2657 H         1 UNK         0.0784 
     96 H96        21.3978    1.4754   -3.8318 H         1 UNK         0.0793 
     97 H97        20.8692   -0.2008   -3.7831 H         1 UNK         0.0793 
     98 H98        21.4554    0.5893   -2.3184 H         1 UNK         0.0793 
     99 H99        22.5591   -1.6352   -2.5347 H         1 UNK         0.3024 
    100 H100       23.6408   -3.3708   -1.7881 H         1 UNK         0.1171 
    101 H101       23.9191   -4.4713   -4.0264 H         1 UNK         0.0786 
    102 H102       25.6671   -4.3347   -3.8871 H         1 UNK         0.0786 
    103 H103       24.7669   -5.3560   -2.7691 H         1 UNK         0.0786 
    104 H104       26.5526   -3.5880   -1.7370 H         1 UNK         0.2977 
    105 H105       26.4219   -0.3147   -4.9970 H         1 UNK         0.3127 
    106 H106       28.5876    1.5130   -5.0361 H         1 UNK         0.0770 
    107 H107       25.7100    1.9991   -4.0877 H         1 UNK         0.0814 
    108 H108       27.1313    2.9187   -3.6203 H         1 UNK         0.0814 
    109 H109       26.9728    1.2414   -3.1262 H         1 UNK         0.0814 
    110 H110       25.3682    1.6811   -6.6446 H         1 UNK         0.2983 
    111 H111       25.7562    4.1902   -7.9210 H         1 UNK         0.0947 
    112 H112       23.9330    1.8453   -8.6823 H         1 UNK         0.0806 
    113 H113       23.8008    3.4819   -9.3122 H         1 UNK         0.0806 
    114 H114       23.5182    3.1772   -7.6057 H         1 UNK         0.0806 
    115 H115       26.3974    0.8448   -9.0771 H         1 UNK         0.3000 
    116 H116       27.3801    1.5809  -11.6586 H         1 UNK         0.0850 
    117 H117       28.3149   -0.7357  -11.6623 H         1 UNK         0.0810 
    118 H118       26.6530   -0.7316  -11.0928 H         1 UNK         0.0810 
    119 H119       27.9799   -0.8920   -9.9437 H         1 UNK         0.0810 
    120 H120       28.9204    1.3463   -8.4956 H         1 UNK         0.3040 
    121 H121       30.8234    1.9785   -7.6053 H         1 UNK         0.0766 
    122 H122       31.2820    3.7372  -10.0751 H         1 UNK         0.0812 
    123 H123       32.0991    3.8849   -8.5266 H         1 UNK         0.0812 
    124 H124       30.3755    4.2075   -8.6372 H         1 UNK         0.0812 
    125 H125       30.8728   -0.4482   -8.5608 H         1 UNK         0.3205 
    126 H126       32.9757   -1.0626  -10.4258 H         1 UNK         0.0754 
    127 H127       32.3908   -3.4030   -9.8857 H         1 UNK         0.0769 
    128 H128       30.9323   -2.4613  -10.1404 H         1 UNK         0.0769 
    129 H129       31.4383   -2.8809   -8.5047 H         1 UNK         0.0769 
    130 H130       34.2488    0.5346   -8.7499 H         1 UNK         0.2981 
    131 H131       36.2065   -1.1847   -7.2952 H         1 UNK         0.0541 
    132 H132       37.5817    1.1800  -10.1484 H         1 UNK         0.3459 
    133 H133       35.9401    0.5921  -10.0999 H         1 UNK         0.3459 
    134 H134       35.0765    1.5180   -6.3809 H         1 UNK         0.0612 
    135 H135       36.5193    0.8082   -5.7057 H         1 UNK         0.0612 
    136 H136       32.8869    1.2319   -4.8242 H         1 UNK         0.0624 
    137 H137       32.7169    0.3180   -6.3043 H         1 UNK         0.0624 
@<TRIPOS>BOND
     1    1    2 1    
     2    1   72 1    
     3    1   73 1    
     4    1   74 1    
     5    2    3 2    
     6    2    4 am   BACKBONE|DICT|INTERRES
     7    4    5 1    
     8    4   75 1    
     9    5    6 1    
    10    5   35 1    
    11    5   76 1    
    12    6    7 1    
    13    6   77 1    
    14    6   78 1    
    15    7    8 1    
    16    8    9 1    
    17    8   79 1    
    18    8   80 1    
    19    9   10 ar   
    20    9   14 ar   
    21   10   11 ar   
    22   10   81 1    
    23   11   12 ar   
    24   11   71 1    
    25   12   13 ar   
    26   12   82 1    
    27   13   14 ar   
    28   13   15 1    
    29   14   83 1    
    30   15   16 1    
    31   15   84 1    
    32   15   85 1    
    33   16   17 1    
    34   17   18 1    
    35   17   86 1    
    36   17   87 1    
    37   18   19 1    
    38   18   37 1    
    39   18   88 1    
    40   19   20 am   BACKBONE|DICT|INTERRES
    41   19   89 1    
    42   20   21 2    
    43   20   22 1    
    44   22   23 1    
    45   22   24 1    
    46   22   90 1    
    47   23   91 1    
    48   23   92 1    
    49   23   93 1    
    50   24   25 am   BACKBONE|DICT|INTERRES
    51   24   94 1    
    52   25   26 2    
    53   25   27 1    
    54   27   28 1    
    55   27   29 1    
    56   27   95 1    
    57   28   96 1    
    58   28   97 1    
    59   28   98 1    
    60   29   30 am   BACKBONE|DICT|INTERRES
    61   29   99 1    
    62   30   31 2    
    63   30   32 1    
    64   32   33 1    
    65   32   34 1    
    66   32  100 1    
    67   33  101 1    
    68   33  102 1    
    69   33  103 1    
    70   34   35 am   BACKBONE|DICT|INTERRES
    71   34  104 1    
    72   35   36 2    
    73   37   38 2    
    74   37   39 am   BACKBONE|DICT|INTERRES
    75   39   40 1    
    76   39  105 1    
    77   40   41 1    
    78   40   42 1    
    79   40  106 1    
    80   41  107 1    
    81   41  108 1    
    82   41  109 1    
    83   42   43 2    
    84   42   44 am   BACKBONE|DICT|INTERRES
    85   44   45 1    
    86   44  110 1    
    87   45   46 1    
    88   45   47 1    
    89   45  111 1    
    90   46  112 1    
    91   46  113 1    
    92   46  114 1    
    93   47   48 2    
    94   47   49 am   BACKBONE|DICT|INTERRES
    95   49   50 1    
    96   49  115 1    
    97   50   51 1    
    98   50   52 1    
    99   50  116 1    
   100   51  117 1    
   101   51  118 1    
   102   51  119 1    
   103   52   53 2    
   104   52   54 am   BACKBONE|DICT|INTERRES
   105   54   55 1    
   106   54  120 1    
   107   55   56 1    
   108   55   57 1    
   109   55  121 1    
   110   56  122 1    
   111   56  123 1    
   112   56  124 1    
   113   57   58 2    
   114   57   59 am   BACKBONE|DICT|INTERRES
   115   59   60 1    
   116   59  125 1    
   117   60   61 1    
   118   60   62 1    
   119   60  126 1    
   120   61  127 1    
   121   61  128 1    
   122   61  129 1    
   123   62   63 2    
   124   62   64 am   BACKBONE|DICT|INTERRES
   125   64   65 1    
   126   64  130 1    
   127   65   66 1    
   128   65   69 1    
   129   65  131 1    
   130   66   67 am   BACKBONE|DICT|INTERRES
   131   66   68 2    
   132   67  132 1    
   133   67  133 1    
   134   69   70 1    
   135   69  134 1    
   136   69  135 1    
   137   70   71 1    
   138   71  136 1    
   139   71  137 1    
@<TRIPOS>SUBSTRUCTURE
     1 UNK         1 GROUP             0       ****    0 ROOT    
