@<TRIPOS>MOLECULE
3R137
137   139    1
SMALL
USER_CHARGES


@<TRIPOS>ATOM
      1 CA         29.6479   -0.5627   -3.4570 C.3       0 UNK        -0.2020 
      2 C          28.8494   -0.7300   -2.1755 C.2       0 UNK         0.4855 
      3 O          28.6539    0.2445   -1.4496 O.2       0 UNK        -0.5197 
      4 N          28.3966   -1.9607   -1.8976 N.am      1 UNK        -0.4892 
      5 CA         27.6477   -2.3766   -0.7024 C.3       1 UNK         0.0835 
      6 C6         28.5207   -2.3519    0.5881 C.3       12 UNK        -0.0855 
      7 S7         29.4422   -3.9117    0.8384 S.3       12 UNK        -0.2931 
      8 C8         30.9866   -3.6701   -0.1156 C.3       12 UNK         0.0378 
      9 C9         30.8886   -3.9475   -1.6193 C.ar      12 UNK        -0.0802 
     10 C10        31.8761   -3.4286   -2.4648 C.ar      12 UNK        -0.0944 
     11 C11        31.8184   -3.6359   -3.8469 C.ar      12 UNK        -0.0787 
     12 C12        30.7473   -4.3479   -4.3919 C.ar      12 UNK        -0.0862 
     13 C13        29.7490   -4.8672   -3.5639 C.ar      12 UNK        -0.0733 
     14 C14        29.8483   -4.7019   -2.1802 C.ar      12 UNK        -0.0832 
     15 C15        28.5459   -5.5857   -4.1577 C.3       12 UNK         0.0240 
     16 S16        27.0402   -4.5616   -4.0473 S.3       12 UNK        -0.2522 
     17 C17        27.3943   -3.2266   -5.2415 C.3       12 UNK        -0.0967 
     18 CA         26.5082   -3.3065   -6.5121 C.3       5 UNK         0.0660 
     19 N          25.0865   -3.1924   -6.1808 N.am      5 UNK        -0.4015 
     20 C          24.0844   -3.7708   -6.8559 C.2       4 UNK         0.4946 
     21 O          24.2543   -4.5471   -7.7981 O.2       4 UNK        -0.5353 
     22 CA         22.6433   -3.4495   -6.4085 C.3       4 UNK         0.0277 
     23 CB         22.0893   -4.5885   -5.5363 C.3       4 UNK        -0.1981 
     24 N          22.5313   -2.1885   -5.6714 N.am      4 UNK        -0.4209 
     25 C          22.6189   -0.9676   -6.2190 C.2       3 UNK         0.4942 
     26 O          22.6529   -0.7687   -7.4336 O.2       3 UNK        -0.5208 
     27 CA         22.6860    0.2413   -5.2594 C.3       3 UNK         0.0250 
     28 CB         21.3607    1.0211   -5.2846 C.3       3 UNK        -0.1990 
     29 N          23.0248   -0.0786   -3.8638 N.am      3 UNK        -0.4232 
     30 C          24.1584   -0.6660   -3.4571 C.2       2 UNK         0.4993 
     31 O          25.0444   -1.0393   -4.2309 O.2       2 UNK        -0.5286 
     32 CA         24.3036   -0.9348   -1.9528 C.3       2 UNK         0.0209 
     33 CB         23.1862   -1.8617   -1.4310 C.3       2 UNK        -0.1931 
     34 N          25.6030   -1.5616   -1.7413 N.am      2 UNK        -0.4546 
     35 C          26.2913   -1.6402   -0.5982 C.2       1 UNK         0.5154 
     36 O          25.8926   -1.1764    0.4722 O.2       1 UNK        -0.5181 
     37 C          26.8934   -2.1948   -7.5093 C.2       5 UNK         0.5014 
     38 O          26.1026   -1.2838   -7.7689 O.2       5 UNK        -0.5248 
     39 N          28.1370   -2.2381   -8.0082 N.am      6 UNK        -0.4434 
     40 CA         28.7522   -1.2292   -8.8833 C.3       6 UNK         0.0363 
     41 CB         29.9862   -1.8534   -9.5612 C.3       6 UNK        -0.1936 
     42 C          29.0897    0.1002   -8.1663 C.2       6 UNK         0.5081 
     43 O          30.1484    0.6830   -8.4100 O.2       6 UNK        -0.5248 
     44 N          28.1815    0.5719   -7.3025 N.am      7 UNK        -0.4718 
     45 CA         28.2979    1.7907   -6.4996 C.3       7 UNK         0.0273 
     46 CB         27.1173    1.8626   -5.5160 C.3       7 UNK        -0.1935 
     47 C          28.3744    3.0656   -7.3519 C.2       7 UNK         0.5018 
     48 O          29.1341    3.9725   -7.0136 O.2       7 UNK        -0.5186 
     49 N          27.6434    3.0846   -8.4761 N.am      8 UNK        -0.4240 
     50 CA         27.6574    4.1637   -9.4704 C.3       8 UNK         0.0235 
     51 CB         26.5491    3.9113  -10.5054 C.3       8 UNK        -0.2000 
     52 C          29.0178    4.3419  -10.1721 C.2       8 UNK         0.4941 
     53 O          29.3231    5.4481  -10.6185 O.2       8 UNK        -0.5273 
     54 N          29.8104    3.2637  -10.2382 N.am      9 UNK        -0.4262 
     55 CA         31.1775    3.2496  -10.7599 C.3       9 UNK         0.0264 
     56 CB         31.3550    1.9846  -11.6191 C.3       9 UNK        -0.1955 
     57 C          32.2285    3.2858   -9.6343 C.2       9 UNK         0.5031 
     58 O          33.4189    3.1882   -9.9368 O.2       9 UNK        -0.5390 
     59 N          31.7906    3.3683   -8.3658 N.am      10 UNK        -0.4204 
     60 CA         32.5912    3.2718   -7.1372 C.3       10 UNK         0.0237 
     61 CB         33.4253    4.5552   -6.9395 C.3       10 UNK        -0.1985 
     62 C          33.4417    1.9847   -7.0671 C.2       10 UNK         0.4970 
     63 O          34.5766    2.0276   -6.5885 O.2       10 UNK        -0.4914 
     64 N          32.8862    0.8774   -7.5810 N.am      11 UNK        -0.4285 
     65 CA         33.5495   -0.4225   -7.7792 C.3       11 UNK         0.1007 
     66 C          34.7032   -0.4135   -8.8312 C.2       11 UNK         0.5703 
     67 N          34.8655    0.6218   -9.6481 N.am      11 UNK        -0.7361 
     68 O          35.4483   -1.3846   -8.9417 O.2       11 UNK        -0.4986 
     69 C69        33.9526   -1.1145   -6.4443 C.3       12 UNK        -0.0947 
     70 S70        32.5161   -1.4327   -5.3665 S.3       12 UNK        -0.2240 
     71 C71        32.9134   -3.0982   -4.7549 C.3       12 UNK         0.0194 
     72 H72        30.6767   -0.2852   -3.2173 H         1 UNK         0.0906 
     73 H73        29.6725   -1.4801   -4.0482 H         1 UNK         0.0906 
     74 H74        29.2164    0.2279   -4.0715 H         1 UNK         0.0906 
     75 H75        28.6307   -2.7165   -2.5279 H         1 UNK         0.3140 
     76 H76        27.3540   -3.4127   -0.8794 H         1 UNK         0.1085 
     77 H77        27.9065   -2.2364    1.4824 H         1 UNK         0.0836 
     78 H78        29.2060   -1.5033    0.5981 H         1 UNK         0.0836 
     79 H79        31.7461   -4.3345    0.2982 H         1 UNK         0.0731 
     80 H80        31.3451   -2.6530    0.0511 H         1 UNK         0.0731 
     81 H81        32.6953   -2.8592   -2.0466 H         1 UNK         0.1312 
     82 H82        30.6896   -4.4891   -5.4625 H         1 UNK         0.1406 
     83 H83        29.0807   -5.1307   -1.5516 H         1 UNK         0.1631 
     84 H84        28.3797   -6.5192   -3.6181 H         1 UNK         0.0717 
     85 H85        28.7243   -5.8605   -5.1985 H         1 UNK         0.0717 
     86 H86        27.2537   -2.2706   -4.7356 H         1 UNK         0.0934 
     87 H87        28.4504   -3.2618   -5.5065 H         1 UNK         0.0934 
     88 H88        26.6896   -4.2663   -7.0007 H         1 UNK         0.0739 
     89 H89        24.8705   -2.4988   -5.4709 H         1 UNK         0.3093 
     90 H90        22.0292   -3.3770   -7.3088 H         1 UNK         0.0818 
     91 H91        22.6624   -4.7085   -4.6159 H         1 UNK         0.0819 
     92 H92        21.0482   -4.4118   -5.2652 H         1 UNK         0.0819 
     93 H93        22.1263   -5.5400   -6.0687 H         1 UNK         0.0819 
     94 H94        22.4809   -2.2526   -4.6657 H         1 UNK         0.3041 
     95 H95        23.4738    0.8954   -5.6395 H         1 UNK         0.0784 
     96 H96        21.0943    1.3085   -6.3030 H         1 UNK         0.0793 
     97 H97        20.5360    0.4275   -4.8879 H         1 UNK         0.0793 
     98 H98        21.4276    1.9391   -4.7004 H         1 UNK         0.0793 
     99 H99        22.3412    0.1858   -3.1686 H         1 UNK         0.3024 
    100 H100       24.2768    0.0226   -1.4275 H         1 UNK         0.1171 
    101 H101       23.1775   -2.8168   -1.9579 H         1 UNK         0.0786 
    102 H102       22.2009   -1.4103   -1.5507 H         1 UNK         0.0786 
    103 H103       23.3083   -2.0718   -0.3682 H         1 UNK         0.0786 
    104 H104       26.0319   -1.8927   -2.5976 H         1 UNK         0.2977 
    105 H105       28.7358   -3.0058   -7.7410 H         1 UNK         0.3127 
    106 H106       28.0348   -0.9809   -9.6681 H         1 UNK         0.0770 
    107 H107       30.7440   -2.1369   -8.8306 H         1 UNK         0.0814 
    108 H108       30.4493   -1.1576  -10.2617 H         1 UNK         0.0814 
    109 H109       29.7183   -2.7442  -10.1295 H         1 UNK         0.0814 
    110 H110       27.3142    0.0461   -7.2224 H         1 UNK         0.2983 
    111 H111       29.2271    1.7252   -5.9298 H         1 UNK         0.0947 
    112 H112       26.1615    1.9416   -6.0360 H         1 UNK         0.0806 
    113 H113       27.2065    2.7309   -4.8616 H         1 UNK         0.0806 
    114 H114       27.0705    0.9797   -4.8779 H         1 UNK         0.0806 
    115 H115       27.0537    2.2881   -8.6717 H         1 UNK         0.3000 
    116 H116       27.4360    5.0979   -8.9497 H         1 UNK         0.0850 
    117 H117       26.5163    4.7128  -11.2450 H         1 UNK         0.0810 
    118 H118       25.5669    3.8689  -10.0341 H         1 UNK         0.0810 
    119 H119       26.7048    2.9764  -11.0454 H         1 UNK         0.0810 
    120 H120       29.4900    2.3993   -9.8206 H         1 UNK         0.3040 
    121 H121       31.3501    4.1216  -11.3941 H         1 UNK         0.0766 
    122 H122       30.6204    1.9444  -12.4235 H         1 UNK         0.0812 
    123 H123       31.2531    1.0764  -11.0241 H         1 UNK         0.0812 
    124 H124       32.3418    1.9597  -12.0834 H         1 UNK         0.0812 
    125 H125       30.7932    3.4633   -8.2130 H         1 UNK         0.3205 
    126 H126       31.8792    3.2078   -6.3131 H         1 UNK         0.0754 
    127 H127       33.9320    4.5499   -5.9736 H         1 UNK         0.0769 
    128 H128       32.7954    5.4443   -6.9678 H         1 UNK         0.0769 
    129 H129       34.1906    4.6614   -7.7092 H         1 UNK         0.0769 
    130 H130       31.9335    0.9294   -7.9352 H         1 UNK         0.2981 
    131 H131       32.7886   -1.0502   -8.2419 H         1 UNK         0.0541 
    132 H132       35.6089    0.5930  -10.3272 H         1 UNK         0.3459 
    133 H133       34.2775    1.4468   -9.5871 H         1 UNK         0.3459 
    134 H134       34.4430   -2.0679   -6.6470 H         1 UNK         0.0612 
    135 H135       34.6791   -0.5164   -5.8933 H         1 UNK         0.0612 
    136 H136       33.8644   -3.0678   -4.2199 H         1 UNK         0.0624 
    137 H137       33.0553   -3.7716   -5.6022 H         1 UNK         0.0624 
@<TRIPOS>BOND
     1    1    2 1    
     2    1   72 1    
     3    1   73 1    
     4    1   74 1    
     5    2    3 2    
     6    2    4 am   BACKBONE|DICT|INTERRES
     7    4    5 1    
     8    4   75 1    
     9    5    6 1    
    10    5   35 1    
    11    5   76 1    
    12    6    7 1    
    13    6   77 1    
    14    6   78 1    
    15    7    8 1    
    16    8    9 1    
    17    8   79 1    
    18    8   80 1    
    19    9   10 ar   
    20    9   14 ar   
    21   10   11 ar   
    22   10   81 1    
    23   11   12 ar   
    24   11   71 1    
    25   12   13 ar   
    26   12   82 1    
    27   13   14 ar   
    28   13   15 1    
    29   14   83 1    
    30   15   16 1    
    31   15   84 1    
    32   15   85 1    
    33   16   17 1    
    34   17   18 1    
    35   17   86 1    
    36   17   87 1    
    37   18   19 1    
    38   18   37 1    
    39   18   88 1    
    40   19   20 am   BACKBONE|DICT|INTERRES
    41   19   89 1    
    42   20   21 2    
    43   20   22 1    
    44   22   23 1    
    45   22   24 1    
    46   22   90 1    
    47   23   91 1    
    48   23   92 1    
    49   23   93 1    
    50   24   25 am   BACKBONE|DICT|INTERRES
    51   24   94 1    
    52   25   26 2    
    53   25   27 1    
    54   27   28 1    
    55   27   29 1    
    56   27   95 1    
    57   28   96 1    
    58   28   97 1    
    59   28   98 1    
    60   29   30 am   BACKBONE|DICT|INTERRES
    61   29   99 1    
    62   30   31 2    
    63   30   32 1    
    64   32   33 1    
    65   32   34 1    
    66   32  100 1    
    67   33  101 1    
    68   33  102 1    
    69   33  103 1    
    70   34   35 am   BACKBONE|DICT|INTERRES
    71   34  104 1    
    72   35   36 2    
    73   37   38 2    
    74   37   39 am   BACKBONE|DICT|INTERRES
    75   39   40 1    
    76   39  105 1    
    77   40   41 1    
    78   40   42 1    
    79   40  106 1    
    80   41  107 1    
    81   41  108 1    
    82   41  109 1    
    83   42   43 2    
    84   42   44 am   BACKBONE|DICT|INTERRES
    85   44   45 1    
    86   44  110 1    
    87   45   46 1    
    88   45   47 1    
    89   45  111 1    
    90   46  112 1    
    91   46  113 1    
    92   46  114 1    
    93   47   48 2    
    94   47   49 am   BACKBONE|DICT|INTERRES
    95   49   50 1    
    96   49  115 1    
    97   50   51 1    
    98   50   52 1    
    99   50  116 1    
   100   51  117 1    
   101   51  118 1    
   102   51  119 1    
   103   52   53 2    
   104   52   54 am   BACKBONE|DICT|INTERRES
   105   54   55 1    
   106   54  120 1    
   107   55   56 1    
   108   55   57 1    
   109   55  121 1    
   110   56  122 1    
   111   56  123 1    
   112   56  124 1    
   113   57   58 2    
   114   57   59 am   BACKBONE|DICT|INTERRES
   115   59   60 1    
   116   59  125 1    
   117   60   61 1    
   118   60   62 1    
   119   60  126 1    
   120   61  127 1    
   121   61  128 1    
   122   61  129 1    
   123   62   63 2    
   124   62   64 am   BACKBONE|DICT|INTERRES
   125   64   65 1    
   126   64  130 1    
   127   65   66 1    
   128   65   69 1    
   129   65  131 1    
   130   66   67 am   BACKBONE|DICT|INTERRES
   131   66   68 2    
   132   67  132 1    
   133   67  133 1    
   134   69   70 1    
   135   69  134 1    
   136   69  135 1    
   137   70   71 1    
   138   71  136 1    
   139   71  137 1    
@<TRIPOS>SUBSTRUCTURE
     1 UNK         1 GROUP             0       ****    0 ROOT    
