@<TRIPOS>MOLECULE
3R137
137   139    1
SMALL
USER_CHARGES


@<TRIPOS>ATOM
      1 CA         25.4695   -5.5558    1.8822 C.3       0 UNK        -0.2020 
      2 C          26.1896   -4.5267    1.0241 C.2       0 UNK         0.4855 
      3 O          26.4747   -3.4274    1.4976 O.2       0 UNK        -0.5197 
      4 N          26.4711   -4.8681   -0.2400 N.am      1 UNK        -0.4892 
      5 CA         27.1869   -4.0251   -1.2095 C.3       1 UNK         0.0835 
      6 C6         28.0788   -4.8749   -2.1571 C.3       12 UNK        -0.0855 
      7 S7         29.6872   -5.2450   -1.3786 S.3       12 UNK        -0.2931 
      8 C8         30.8784   -4.6535   -2.6399 C.3       12 UNK         0.0378 
      9 C9         30.8702   -3.1505   -2.9438 C.ar      12 UNK        -0.0802 
     10 C10        31.4225   -2.7131   -4.1532 C.ar      12 UNK        -0.0944 
     11 C11        31.4619   -1.3529   -4.4774 C.ar      12 UNK        -0.0787 
     12 C12        30.9297   -0.4186   -3.5871 C.ar      12 UNK        -0.0862 
     13 C13        30.3686   -0.8337   -2.3775 C.ar      12 UNK        -0.0733 
     14 C14        30.3609   -2.1959   -2.0532 C.ar      12 UNK        -0.0832 
     15 C15        29.7897    0.1871   -1.4076 C.3       12 UNK         0.0240 
     16 S16        27.9928   -0.0222   -1.2111 S.3       12 UNK        -0.2522 
     17 C17        27.2635    1.2334   -2.3163 C.3       12 UNK        -0.0967 
     18 CA         27.6504    1.1686   -3.8185 C.3       5 UNK         0.0660 
     19 N          27.4709   -0.1525   -4.4341 N.am      5 UNK        -0.4015 
     20 C          27.8306   -0.4599   -5.6923 C.2       4 UNK         0.4946 
     21 O          28.4299    0.3088   -6.4438 O.2       4 UNK        -0.5353 
     22 CA         27.4065   -1.8307   -6.2376 C.3       4 UNK         0.0277 
     23 CB         28.4341   -2.9098   -5.8738 C.3       4 UNK        -0.1981 
     24 N          26.0815   -2.2174   -5.7556 N.am      4 UNK        -0.4209 
     25 C          24.9329   -1.7054   -6.2171 C.2       3 UNK         0.4942 
     26 O          24.8704   -0.8780   -7.1257 O.2       3 UNK        -0.5208 
     27 CA         23.6368   -2.1689   -5.5295 C.3       3 UNK         0.0250 
     28 CB         23.1466   -3.4932   -6.1359 C.3       3 UNK        -0.1990 
     29 N          23.7715   -2.3128   -4.0771 N.am      3 UNK        -0.4232 
     30 C          24.0107   -1.2935   -3.2411 C.2       2 UNK         0.4993 
     31 O          24.1364   -0.1238   -3.6047 O.2       2 UNK        -0.5286 
     32 CA         24.1842   -1.6386   -1.7525 C.3       2 UNK         0.0209 
     33 CB         22.8155   -1.8415   -1.0827 C.3       2 UNK        -0.1931 
     34 N          25.0555   -2.7826   -1.4401 N.am      2 UNK        -0.4546 
     35 C          26.2668   -3.0364   -1.9606 C.2       1 UNK         0.5154 
     36 O          26.6905   -2.4883   -2.9764 O.2       1 UNK        -0.5181 
     37 C          26.8790    2.2577   -4.5930 C.2       5 UNK         0.5014 
     38 O          27.4356    3.3257   -4.8510 O.2       5 UNK        -0.5248 
     39 N          25.6202    1.9615   -4.9537 N.am      6 UNK        -0.4434 
     40 CA         24.7559    2.8286   -5.7556 C.3       6 UNK         0.0363 
     41 CB         23.3205    2.2788   -5.7458 C.3       6 UNK        -0.1936 
     42 C          25.2576    3.0081   -7.1978 C.2       6 UNK         0.5081 
     43 O          25.2166    4.1268   -7.7110 O.2       6 UNK        -0.5248 
     44 N          25.7174    1.9158   -7.8261 N.am      7 UNK        -0.4718 
     45 CA         26.2722    1.9227   -9.1820 C.3       7 UNK         0.0273 
     46 CB         26.4103    0.4812   -9.6978 C.3       7 UNK        -0.1935 
     47 C          27.6213    2.6510   -9.2784 C.2       7 UNK         0.5018 
     48 O          27.8508    3.3563  -10.2620 O.2       7 UNK        -0.5186 
     49 N          28.4975    2.4377   -8.2842 N.am      8 UNK        -0.4240 
     50 CA         29.8735    2.9352   -8.1330 C.3       8 UNK         0.0235 
     51 CB         29.9246    4.4738   -8.0823 C.3       8 UNK        -0.2000 
     52 C          30.8592    2.3707   -9.1715 C.2       8 UNK         0.4941 
     53 O          31.9254    1.8849   -8.7926 O.2       8 UNK        -0.5273 
     54 N          30.4679    2.3851  -10.4533 N.am      9 UNK        -0.4262 
     55 CA         31.2013    1.8480  -11.6054 C.3       9 UNK         0.0264 
     56 CB         30.4097    2.1507  -12.8874 C.3       9 UNK        -0.1955 
     57 C          31.5182    0.3437  -11.5128 C.2       9 UNK         0.5031 
     58 O          32.4543   -0.1137  -12.1688 O.2       9 UNK        -0.5390 
     59 N          30.7783   -0.3864  -10.6657 N.am      10 UNK        -0.4204 
     60 CA         31.0303   -1.7771  -10.2788 C.3       10 UNK         0.0237 
     61 CB         29.9207   -2.2270   -9.3136 C.3       10 UNK        -0.1985 
     62 C          32.4195   -2.0097   -9.6489 C.2       10 UNK         0.4970 
     63 O          32.9528   -3.1125   -9.7735 O.2       10 UNK        -0.4914 
     64 N          32.9818   -0.9747   -9.0099 N.am      11 UNK        -0.4285 
     65 CA         34.3560   -0.9497   -8.4891 C.3       11 UNK         0.1007 
     66 C          35.4125   -0.4961   -9.5419 C.2       11 UNK         0.5703 
     67 N          35.0526   -0.1875  -10.7830 N.am      11 UNK        -0.7361 
     68 O          36.6007   -0.4444   -9.2326 O.2       11 UNK        -0.4986 
     69 C69        34.4326   -0.1120   -7.1827 C.3       12 UNK        -0.0947 
     70 S70        33.8970   -1.0514   -5.7166 S.3       12 UNK        -0.2240 
     71 C71        32.0873   -0.8911   -5.7843 C.3       12 UNK         0.0194 
     72 H72        26.0740   -5.8049    2.7540 H         1 UNK         0.0906 
     73 H73        24.5181   -5.1551    2.2311 H         1 UNK         0.0906 
     74 H74        25.2694   -6.4769    1.3351 H         1 UNK         0.0906 
     75 H75        26.1993   -5.7819   -0.5759 H         1 UNK         0.3140 
     76 H76        27.8462   -3.3594   -0.6491 H         1 UNK         0.1085 
     77 H77        28.2789   -4.3728   -3.1017 H         1 UNK         0.0836 
     78 H78        27.5853   -5.8093   -2.4287 H         1 UNK         0.0836 
     79 H79        30.6971   -5.2113   -3.5602 H         1 UNK         0.0731 
     80 H80        31.8821   -4.9259   -2.3114 H         1 UNK         0.0731 
     81 H81        31.8366   -3.4332   -4.8460 H         1 UNK         0.1312 
     82 H82        30.9586    0.6329   -3.8361 H         1 UNK         0.1406 
     83 H83        29.9507   -2.5028   -1.1028 H         1 UNK         0.1631 
     84 H84        30.0144    1.2085   -1.7184 H         1 UNK         0.0717 
     85 H85        30.2639    0.0536   -0.4344 H         1 UNK         0.0717 
     86 H86        26.1809    1.1485   -2.2046 H         1 UNK         0.0934 
     87 H87        27.5229    2.2131   -1.9099 H         1 UNK         0.0934 
     88 H88        28.7094    1.4141   -3.9037 H         1 UNK         0.0739 
     89 H89        27.0538   -0.8786   -3.8557 H         1 UNK         0.3093 
     90 H90        27.3661   -1.7633   -7.3264 H         1 UNK         0.0818 
     91 H91        28.1220   -3.8965   -6.2152 H         1 UNK         0.0819 
     92 H92        29.3992   -2.6965   -6.3321 H         1 UNK         0.0819 
     93 H93        28.5960   -2.9553   -4.7988 H         1 UNK         0.0819 
     94 H94        26.0578   -2.7896   -4.9199 H         1 UNK         0.3041 
     95 H95        22.8773   -1.4069   -5.7184 H         1 UNK         0.0784 
     96 H96        23.0209   -3.4037   -7.2160 H         1 UNK         0.0793 
     97 H97        23.8504   -4.3069   -5.9560 H         1 UNK         0.0793 
     98 H98        22.1811   -3.7856   -5.7225 H         1 UNK         0.0793 
     99 H99        23.7031   -3.2442   -3.6932 H         1 UNK         0.3024 
    100 H100       24.6537   -0.7672   -1.2911 H         1 UNK         0.1171 
    101 H101       22.9111   -1.9194    0.0005 H         1 UNK         0.0786 
    102 H102       22.1507   -1.0004   -1.2861 H         1 UNK         0.0786 
    103 H103       22.3195   -2.7441   -1.4416 H         1 UNK         0.0786 
    104 H104       24.8149   -3.3017   -0.6083 H         1 UNK         0.2977 
    105 H105       25.2098    1.0877   -4.6309 H         1 UNK         0.3127 
    106 H106       24.7448    3.8137   -5.2842 H         1 UNK         0.0770 
    107 H107       23.2691    1.2765   -6.1728 H         1 UNK         0.0814 
    108 H108       22.6532    2.9170   -6.3264 H         1 UNK         0.0814 
    109 H109       22.9223    2.2296   -4.7322 H         1 UNK         0.0814 
    110 H110       25.6489    1.0151   -7.3629 H         1 UNK         0.2983 
    111 H111       25.5680    2.4488   -9.8305 H         1 UNK         0.0947 
    112 H112       26.8052    0.4646  -10.7146 H         1 UNK         0.0806 
    113 H113       25.4455   -0.0259   -9.7181 H         1 UNK         0.0806 
    114 H114       27.0841   -0.1079   -9.0752 H         1 UNK         0.0806 
    115 H115       28.2279    1.7686   -7.5637 H         1 UNK         0.3000 
    116 H116       30.2043    2.5666   -7.1602 H         1 UNK         0.0850 
    117 H117       30.9359    4.8211   -7.8671 H         1 UNK         0.0810 
    118 H118       29.2739    4.8623   -7.2985 H         1 UNK         0.0810 
    119 H119       29.6206    4.9278   -9.0258 H         1 UNK         0.0810 
    120 H120       29.5588    2.8042  -10.6419 H         1 UNK         0.3040 
    121 H121       32.1567    2.3741  -11.6562 H         1 UNK         0.0766 
    122 H122       30.2627    3.2229  -13.0191 H         1 UNK         0.0812 
    123 H123       29.4275    1.6764  -12.8762 H         1 UNK         0.0812 
    124 H124       30.9387    1.7872  -13.7697 H         1 UNK         0.0812 
    125 H125       30.0330    0.0878  -10.1786 H         1 UNK         0.3205 
    126 H126       30.9756   -2.3876  -11.1823 H         1 UNK         0.0754 
    127 H127       30.0831   -3.2518   -8.9760 H         1 UNK         0.0769 
    128 H128       28.9415   -2.1971   -9.7920 H         1 UNK         0.0769 
    129 H129       29.8794   -1.5918   -8.4279 H         1 UNK         0.0769 
    130 H130       32.4918   -0.0870   -8.9748 H         1 UNK         0.2981 
    131 H131       34.6493   -1.9714   -8.2407 H         1 UNK         0.0541 
    132 H132       35.7650    0.0921  -11.4379 H         1 UNK         0.3459 
    133 H133       34.0886   -0.2472  -11.0922 H         1 UNK         0.3459 
    134 H134       33.8582    0.8116   -7.2652 H         1 UNK         0.0612 
    135 H135       35.4573    0.1987   -6.9719 H         1 UNK         0.0612 
    136 H136       31.8158    0.1438   -6.0003 H         1 UNK         0.0624 
    137 H137       31.6974   -1.4944   -6.6040 H         1 UNK         0.0624 
@<TRIPOS>BOND
     1    1    2 1    
     2    1   72 1    
     3    1   73 1    
     4    1   74 1    
     5    2    3 2    
     6    2    4 am   BACKBONE|DICT|INTERRES
     7    4    5 1    
     8    4   75 1    
     9    5    6 1    
    10    5   35 1    
    11    5   76 1    
    12    6    7 1    
    13    6   77 1    
    14    6   78 1    
    15    7    8 1    
    16    8    9 1    
    17    8   79 1    
    18    8   80 1    
    19    9   10 ar   
    20    9   14 ar   
    21   10   11 ar   
    22   10   81 1    
    23   11   12 ar   
    24   11   71 1    
    25   12   13 ar   
    26   12   82 1    
    27   13   14 ar   
    28   13   15 1    
    29   14   83 1    
    30   15   16 1    
    31   15   84 1    
    32   15   85 1    
    33   16   17 1    
    34   17   18 1    
    35   17   86 1    
    36   17   87 1    
    37   18   19 1    
    38   18   37 1    
    39   18   88 1    
    40   19   20 am   BACKBONE|DICT|INTERRES
    41   19   89 1    
    42   20   21 2    
    43   20   22 1    
    44   22   23 1    
    45   22   24 1    
    46   22   90 1    
    47   23   91 1    
    48   23   92 1    
    49   23   93 1    
    50   24   25 am   BACKBONE|DICT|INTERRES
    51   24   94 1    
    52   25   26 2    
    53   25   27 1    
    54   27   28 1    
    55   27   29 1    
    56   27   95 1    
    57   28   96 1    
    58   28   97 1    
    59   28   98 1    
    60   29   30 am   BACKBONE|DICT|INTERRES
    61   29   99 1    
    62   30   31 2    
    63   30   32 1    
    64   32   33 1    
    65   32   34 1    
    66   32  100 1    
    67   33  101 1    
    68   33  102 1    
    69   33  103 1    
    70   34   35 am   BACKBONE|DICT|INTERRES
    71   34  104 1    
    72   35   36 2    
    73   37   38 2    
    74   37   39 am   BACKBONE|DICT|INTERRES
    75   39   40 1    
    76   39  105 1    
    77   40   41 1    
    78   40   42 1    
    79   40  106 1    
    80   41  107 1    
    81   41  108 1    
    82   41  109 1    
    83   42   43 2    
    84   42   44 am   BACKBONE|DICT|INTERRES
    85   44   45 1    
    86   44  110 1    
    87   45   46 1    
    88   45   47 1    
    89   45  111 1    
    90   46  112 1    
    91   46  113 1    
    92   46  114 1    
    93   47   48 2    
    94   47   49 am   BACKBONE|DICT|INTERRES
    95   49   50 1    
    96   49  115 1    
    97   50   51 1    
    98   50   52 1    
    99   50  116 1    
   100   51  117 1    
   101   51  118 1    
   102   51  119 1    
   103   52   53 2    
   104   52   54 am   BACKBONE|DICT|INTERRES
   105   54   55 1    
   106   54  120 1    
   107   55   56 1    
   108   55   57 1    
   109   55  121 1    
   110   56  122 1    
   111   56  123 1    
   112   56  124 1    
   113   57   58 2    
   114   57   59 am   BACKBONE|DICT|INTERRES
   115   59   60 1    
   116   59  125 1    
   117   60   61 1    
   118   60   62 1    
   119   60  126 1    
   120   61  127 1    
   121   61  128 1    
   122   61  129 1    
   123   62   63 2    
   124   62   64 am   BACKBONE|DICT|INTERRES
   125   64   65 1    
   126   64  130 1    
   127   65   66 1    
   128   65   69 1    
   129   65  131 1    
   130   66   67 am   BACKBONE|DICT|INTERRES
   131   66   68 2    
   132   67  132 1    
   133   67  133 1    
   134   69   70 1    
   135   69  134 1    
   136   69  135 1    
   137   70   71 1    
   138   71  136 1    
   139   71  137 1    
@<TRIPOS>SUBSTRUCTURE
     1 UNK         1 GROUP             0       ****    0 ROOT    
