@<TRIPOS>MOLECULE
3R137
137   139    1
SMALL
USER_CHARGES


@<TRIPOS>ATOM
      1 CA         25.7695   -5.8574   -7.3845 C.3       0 UNK        -0.2020 
      2 C          24.9202   -5.7356   -6.1279 C.2       0 UNK         0.4855 
      3 O          23.8030   -6.2525   -6.0895 O.2       0 UNK        -0.5197 
      4 N          25.4475   -5.0662   -5.0970 N.am      1 UNK        -0.4892 
      5 CA         24.7532   -4.7654   -3.8418 C.3       1 UNK         0.0835 
      6 C6         25.7530   -4.5334   -2.6754 C.3       12 UNK        -0.0855 
      7 S7         27.1012   -3.3530   -3.0429 S.3       12 UNK        -0.2931 
      8 C8         28.5109   -4.4968   -3.1653 C.3       12 UNK         0.0378 
      9 C9         29.7887   -3.7503   -3.5046 C.ar      12 UNK        -0.0802 
     10 C10        30.1939   -3.6129   -4.8347 C.ar      12 UNK        -0.0944 
     11 C11        31.3643   -2.9171   -5.1501 C.ar      12 UNK        -0.0787 
     12 C12        32.1296   -2.3519   -4.1245 C.ar      12 UNK        -0.0862 
     13 C13        31.7221   -2.4668   -2.7911 C.ar      12 UNK        -0.0733 
     14 C14        30.5623   -3.1871   -2.4868 C.ar      12 UNK        -0.0832 
     15 C15        32.5035   -1.7734   -1.6831 C.3       12 UNK         0.0240 
     16 S16        31.4744   -0.5717   -0.7720 S.3       12 UNK        -0.2522 
     17 C17        31.1483    0.7118   -2.0332 C.3       12 UNK        -0.0967 
     18 CA         29.9396    0.3979   -2.9617 C.3       5 UNK         0.0660 
     19 N          28.7192   -0.0123   -2.2603 N.am      5 UNK        -0.4015 
     20 C          27.9479    0.7445   -1.4711 C.2       4 UNK         0.4946 
     21 O          28.1800    1.9197   -1.1797 O.2       4 UNK        -0.5353 
     22 CA         26.6652    0.0660   -0.9563 C.3       4 UNK         0.0277 
     23 CB         26.4382    0.3584    0.5372 C.3       4 UNK        -0.1981 
     24 N          25.4671    0.4531   -1.7098 N.am      4 UNK        -0.4209 
     25 C          25.3075    0.3974   -3.0400 C.2       3 UNK         0.4942 
     26 O          26.1795    0.0348   -3.8314 O.2       3 UNK        -0.5208 
     27 CA         23.9088    0.7439   -3.5661 C.3       3 UNK         0.0250 
     28 CB         23.9476    1.3742   -4.9691 C.3       3 UNK        -0.1990 
     29 N          23.1424   -0.4936   -3.6317 N.am      3 UNK        -0.4232 
     30 C          22.4100   -1.0062   -2.6391 C.2       2 UNK         0.4993 
     31 O          22.2086   -0.4311   -1.5687 O.2       2 UNK        -0.5286 
     32 CA         21.8261   -2.4111   -2.8680 C.3       2 UNK         0.0209 
     33 CB         20.8056   -2.4283   -4.0251 C.3       2 UNK        -0.1931 
     34 N          22.8543   -3.4519   -3.0285 N.am      2 UNK        -0.4546 
     35 C          23.7620   -3.5924   -4.0083 C.2       1 UNK         0.5154 
     36 O          23.8393   -2.8434   -4.9872 O.2       1 UNK        -0.5181 
     37 C          29.6898    1.4906   -4.0246 C.2       5 UNK         0.5014 
     38 O          30.5757    2.3049   -4.2888 O.2       5 UNK        -0.5248 
     39 N          28.5048    1.4680   -4.6462 N.am      6 UNK        -0.4434 
     40 CA         28.1237    2.3235   -5.7693 C.3       6 UNK         0.0363 
     41 CB         27.4601    3.6090   -5.2396 C.3       6 UNK        -0.1936 
     42 C          27.2407    1.5516   -6.7659 C.2       6 UNK         0.5081 
     43 O          26.4675    2.1666   -7.5010 O.2       6 UNK        -0.5248 
     44 N          27.3618    0.2151   -6.7744 N.am      7 UNK        -0.4718 
     45 CA         26.5898   -0.7001   -7.6210 C.3       7 UNK         0.0273 
     46 CB         26.7630   -2.1316   -7.0884 C.3       7 UNK        -0.1935 
     47 C          26.9634   -0.6197   -9.1126 C.2       7 UNK         0.5018 
     48 O          26.1450   -0.9720   -9.9630 O.2       7 UNK        -0.5186 
     49 N          28.1789   -0.1464   -9.3989 N.am      8 UNK        -0.4240 
     50 CA         28.7159    0.1429  -10.7207 C.3       8 UNK         0.0235 
     51 CB         29.3435   -1.1309  -11.3159 C.3       8 UNK        -0.2000 
     52 C          29.7643    1.2475  -10.5559 C.2       8 UNK         0.4941 
     53 O          30.2631    1.4527   -9.4458 O.2       8 UNK        -0.5273 
     54 N          30.1292    1.9068  -11.6641 N.am      9 UNK        -0.4262 
     55 CA         31.1683    2.9469  -11.7056 C.3       9 UNK         0.0264 
     56 CB         31.2258    3.5583  -13.1149 C.3       9 UNK        -0.1955 
     57 C          32.5620    2.4479  -11.2761 C.2       9 UNK         0.5031 
     58 O          33.3466    3.2261  -10.7319 O.2       9 UNK        -0.5390 
     59 N          32.8237    1.1506  -11.4888 N.am      10 UNK        -0.4204 
     60 CA         34.0247    0.4402  -11.0481 C.3       10 UNK         0.0237 
     61 CB         34.0498   -0.9488  -11.7079 C.3       10 UNK        -0.1985 
     62 C          34.1542    0.3064   -9.5179 C.2       10 UNK         0.4970 
     63 O          35.2645    0.0624   -9.0435 O.2       10 UNK        -0.4914 
     64 N          33.0478    0.4546   -8.7739 N.am      11 UNK        -0.4285 
     65 CA         33.0320    0.3946   -7.3039 C.3       11 UNK         0.1007 
     66 C          33.6117    1.6596   -6.6070 C.2       11 UNK         0.5703 
     67 N          33.8199    2.7710   -7.3057 N.am      11 UNK        -0.7361 
     68 O          33.9027    1.6207   -5.4141 O.2       11 UNK        -0.4986 
     69 C69        31.6291    0.0444   -6.7406 C.3       12 UNK        -0.0947 
     70 S70        30.8939   -1.4595   -7.4669 S.3       12 UNK        -0.2240 
     71 C71        31.7972   -2.7819   -6.6016 C.3       12 UNK         0.0194 
     72 H72        26.7566   -5.4136   -7.2552 H         1 UNK         0.0906 
     73 H73        25.9029   -6.9065   -7.6476 H         1 UNK         0.0906 
     74 H74        25.2783   -5.3566   -8.2184 H         1 UNK         0.0906 
     75 H75        26.3447   -4.6137   -5.1951 H         1 UNK         0.3140 
     76 H76        24.1500   -5.6389   -3.5824 H         1 UNK         0.1085 
     77 H77        25.2379   -4.1912   -1.7760 H         1 UNK         0.0836 
     78 H78        26.1911   -5.4925   -2.3948 H         1 UNK         0.0836 
     79 H79        28.6316   -5.0288   -2.2202 H         1 UNK         0.0731 
     80 H80        28.3046   -5.2549   -3.9225 H         1 UNK         0.0731 
     81 H81        29.5961   -4.0416   -5.6275 H         1 UNK         0.1312 
     82 H82        33.0268   -1.7991   -4.3680 H         1 UNK         0.1406 
     83 H83        30.2424   -3.2762   -1.4571 H         1 UNK         0.1631 
     84 H84        33.3840   -1.2647   -2.0788 H         1 UNK         0.0717 
     85 H85        32.8695   -2.5265   -0.9840 H         1 UNK         0.0717 
     86 H86        30.9795    1.6549   -1.5104 H         1 UNK         0.0934 
     87 H87        32.0557    0.8548   -2.6237 H         1 UNK         0.0934 
     88 H88        30.2050   -0.4677   -3.5630 H         1 UNK         0.0739 
     89 H89        28.4013   -0.9495   -2.4697 H         1 UNK         0.3093 
     90 H90        26.7787   -1.0144   -1.0654 H         1 UNK         0.0818 
     91 H91        25.5941   -0.2087    0.9302 H         1 UNK         0.0819 
     92 H92        27.3145    0.0823    1.1253 H         1 UNK         0.0819 
     93 H93        26.2457    1.4169    0.7175 H         1 UNK         0.0819 
     94 H94        24.6717    0.7385   -1.1559 H         1 UNK         0.3041 
     95 H95        23.4316    1.4529   -2.8861 H         1 UNK         0.0784 
     96 H96        22.9448    1.6185   -5.3195 H         1 UNK         0.0793 
     97 H97        24.5233    2.2990   -4.9678 H         1 UNK         0.0793 
     98 H98        24.4010    0.7064   -5.7021 H         1 UNK         0.0793 
     99 H99        23.3534   -1.1164   -4.4088 H         1 UNK         0.3024 
    100 H100       21.2811   -2.6676   -1.9575 H         1 UNK         0.1171 
    101 H101       21.2614   -2.1902   -4.9864 H         1 UNK         0.0786 
    102 H102       20.0138   -1.6978   -3.8542 H         1 UNK         0.0786 
    103 H103       20.3298   -3.4048   -4.1159 H         1 UNK         0.0786 
    104 H104       22.8945   -4.1129   -2.2644 H         1 UNK         0.2977 
    105 H105       27.7849    0.8149   -4.3334 H         1 UNK         0.3127 
    106 H106       29.0181    2.6057   -6.3294 H         1 UNK         0.0770 
    107 H107       26.5753    3.3868   -4.6439 H         1 UNK         0.0814 
    108 H108       27.1552    4.2651   -6.0556 H         1 UNK         0.0814 
    109 H109       28.1481    4.1756   -4.6121 H         1 UNK         0.0814 
    110 H110       28.0227   -0.2113   -6.1420 H         1 UNK         0.2983 
    111 H111       25.5353   -0.4299   -7.5369 H         1 UNK         0.0947 
    112 H112       26.1644   -2.8350   -7.6680 H         1 UNK         0.0806 
    113 H113       26.4343   -2.2070   -6.0510 H         1 UNK         0.0806 
    114 H114       27.8016   -2.4609   -7.1394 H         1 UNK         0.0806 
    115 H115       28.7793    0.1564   -8.6408 H         1 UNK         0.3000 
    116 H116       27.9163    0.5092  -11.3682 H         1 UNK         0.0850 
    117 H117       30.1592   -1.5046  -10.6949 H         1 UNK         0.0810 
    118 H118       28.6060   -1.9283  -11.4096 H         1 UNK         0.0810 
    119 H119       29.7456   -0.9466  -12.3126 H         1 UNK         0.0810 
    120 H120       29.6753    1.6831  -12.5388 H         1 UNK         0.3040 
    121 H121       30.8763    3.7312  -11.0038 H         1 UNK         0.0766 
    122 H122       30.2702    4.0018  -13.3953 H         1 UNK         0.0812 
    123 H123       31.4868    2.8147  -13.8690 H         1 UNK         0.0812 
    124 H124       31.9746    4.3502  -13.1658 H         1 UNK         0.0812 
    125 H125       32.1157    0.5983  -11.9491 H         1 UNK         0.3205 
    126 H126       34.8925    1.0034  -11.3980 H         1 UNK         0.0754 
    127 H127       34.9515   -1.4971  -11.4310 H         1 UNK         0.0769 
    128 H128       34.0417   -0.8732  -12.7955 H         1 UNK         0.0769 
    129 H129       33.1947   -1.5550  -11.4051 H         1 UNK         0.0769 
    130 H130       32.1628    0.6858   -9.2107 H         1 UNK         0.2981 
    131 H131       33.6981   -0.4188   -7.0121 H         1 UNK         0.0541 
    132 H132       34.2041    3.5787   -6.8421 H         1 UNK         0.3459 
    133 H133       33.5994    2.8100   -8.2902 H         1 UNK         0.3459 
    134 H134       30.9379    0.8691   -6.9200 H         1 UNK         0.0612 
    135 H135       31.6718   -0.0759   -5.6585 H         1 UNK         0.0612 
    136 H136       31.6131   -3.7230   -7.1218 H         1 UNK         0.0624 
    137 H137       32.8710   -2.6053   -6.6719 H         1 UNK         0.0624 
@<TRIPOS>BOND
     1    1    2 1    
     2    1   72 1    
     3    1   73 1    
     4    1   74 1    
     5    2    3 2    
     6    2    4 am   BACKBONE|DICT|INTERRES
     7    4    5 1    
     8    4   75 1    
     9    5    6 1    
    10    5   35 1    
    11    5   76 1    
    12    6    7 1    
    13    6   77 1    
    14    6   78 1    
    15    7    8 1    
    16    8    9 1    
    17    8   79 1    
    18    8   80 1    
    19    9   10 ar   
    20    9   14 ar   
    21   10   11 ar   
    22   10   81 1    
    23   11   12 ar   
    24   11   71 1    
    25   12   13 ar   
    26   12   82 1    
    27   13   14 ar   
    28   13   15 1    
    29   14   83 1    
    30   15   16 1    
    31   15   84 1    
    32   15   85 1    
    33   16   17 1    
    34   17   18 1    
    35   17   86 1    
    36   17   87 1    
    37   18   19 1    
    38   18   37 1    
    39   18   88 1    
    40   19   20 am   BACKBONE|DICT|INTERRES
    41   19   89 1    
    42   20   21 2    
    43   20   22 1    
    44   22   23 1    
    45   22   24 1    
    46   22   90 1    
    47   23   91 1    
    48   23   92 1    
    49   23   93 1    
    50   24   25 am   BACKBONE|DICT|INTERRES
    51   24   94 1    
    52   25   26 2    
    53   25   27 1    
    54   27   28 1    
    55   27   29 1    
    56   27   95 1    
    57   28   96 1    
    58   28   97 1    
    59   28   98 1    
    60   29   30 am   BACKBONE|DICT|INTERRES
    61   29   99 1    
    62   30   31 2    
    63   30   32 1    
    64   32   33 1    
    65   32   34 1    
    66   32  100 1    
    67   33  101 1    
    68   33  102 1    
    69   33  103 1    
    70   34   35 am   BACKBONE|DICT|INTERRES
    71   34  104 1    
    72   35   36 2    
    73   37   38 2    
    74   37   39 am   BACKBONE|DICT|INTERRES
    75   39   40 1    
    76   39  105 1    
    77   40   41 1    
    78   40   42 1    
    79   40  106 1    
    80   41  107 1    
    81   41  108 1    
    82   41  109 1    
    83   42   43 2    
    84   42   44 am   BACKBONE|DICT|INTERRES
    85   44   45 1    
    86   44  110 1    
    87   45   46 1    
    88   45   47 1    
    89   45  111 1    
    90   46  112 1    
    91   46  113 1    
    92   46  114 1    
    93   47   48 2    
    94   47   49 am   BACKBONE|DICT|INTERRES
    95   49   50 1    
    96   49  115 1    
    97   50   51 1    
    98   50   52 1    
    99   50  116 1    
   100   51  117 1    
   101   51  118 1    
   102   51  119 1    
   103   52   53 2    
   104   52   54 am   BACKBONE|DICT|INTERRES
   105   54   55 1    
   106   54  120 1    
   107   55   56 1    
   108   55   57 1    
   109   55  121 1    
   110   56  122 1    
   111   56  123 1    
   112   56  124 1    
   113   57   58 2    
   114   57   59 am   BACKBONE|DICT|INTERRES
   115   59   60 1    
   116   59  125 1    
   117   60   61 1    
   118   60   62 1    
   119   60  126 1    
   120   61  127 1    
   121   61  128 1    
   122   61  129 1    
   123   62   63 2    
   124   62   64 am   BACKBONE|DICT|INTERRES
   125   64   65 1    
   126   64  130 1    
   127   65   66 1    
   128   65   69 1    
   129   65  131 1    
   130   66   67 am   BACKBONE|DICT|INTERRES
   131   66   68 2    
   132   67  132 1    
   133   67  133 1    
   134   69   70 1    
   135   69  134 1    
   136   69  135 1    
   137   70   71 1    
   138   71  136 1    
   139   71  137 1    
@<TRIPOS>SUBSTRUCTURE
     1 UNK         1 GROUP             0       ****    0 ROOT    
