@<TRIPOS>MOLECULE
3R137
137   139    1
SMALL
USER_CHARGES


@<TRIPOS>ATOM
      1 CA         24.7166   -6.9928   -3.7522 C.3       0 UNK        -0.2020 
      2 C          25.1381   -5.6102   -3.2822 C.2       0 UNK         0.4855 
      3 O          24.5242   -4.6185   -3.6789 O.2       0 UNK        -0.5197 
      4 N          26.1631   -5.5347   -2.4190 N.am      1 UNK        -0.4892 
      5 CA         26.8052   -4.3084   -1.9049 C.3       1 UNK         0.0835 
      6 C6         27.5377   -3.5082   -3.0141 C.3       12 UNK        -0.0855 
      7 S7         28.8360   -4.4499   -3.8847 S.3       12 UNK        -0.2931 
      8 C8         30.3459   -3.9304   -3.0049 C.3       12 UNK         0.0378 
      9 C9         30.6766   -2.4585   -3.2212 C.ar      12 UNK        -0.0802 
     10 C10        31.3763   -2.0468   -4.3596 C.ar      12 UNK        -0.0944 
     11 C11        31.7217   -0.7015   -4.5349 C.ar      12 UNK        -0.0787 
     12 C12        31.3250    0.2404   -3.5791 C.ar      12 UNK        -0.0862 
     13 C13        30.6040   -0.1573   -2.4485 C.ar      12 UNK        -0.0733 
     14 C14        30.3069   -1.5092   -2.2644 C.ar      12 UNK        -0.0832 
     15 C15        30.1525    0.8639   -1.4134 C.3       12 UNK         0.0240 
     16 S16        28.8752    1.9946   -2.0545 S.3       12 UNK        -0.2522 
     17 C17        27.5315    0.8683   -2.5800 C.3       12 UNK        -0.0967 
     18 CA         27.4632    0.6803   -4.1194 C.3       5 UNK         0.0660 
     19 N          26.6227   -0.4674   -4.4881 N.am      5 UNK        -0.4015 
     20 C          26.5174   -0.9636   -5.7316 C.2       4 UNK         0.4946 
     21 O          27.2394   -0.6049   -6.6596 O.2       4 UNK        -0.5353 
     22 CA         25.3666   -1.9425   -6.0371 C.3       4 UNK         0.0277 
     23 CB         25.8781   -3.2991   -6.5549 C.3       4 UNK        -0.1981 
     24 N          24.3998   -2.1445   -4.9497 N.am      4 UNK        -0.4209 
     25 C          23.5406   -1.2108   -4.5127 C.2       3 UNK         0.4942 
     26 O          23.5841   -0.0342   -4.8741 O.2       3 UNK        -0.5208 
     27 CA         22.4711   -1.6454   -3.5023 C.3       3 UNK         0.0250 
     28 CB         21.3618   -2.4481   -4.2026 C.3       3 UNK        -0.1990 
     29 N          23.0412   -2.4465   -2.4178 N.am      3 UNK        -0.4232 
     30 C          22.9276   -2.1602   -1.1116 C.2       2 UNK         0.4993 
     31 O          22.3188   -1.1826   -0.6744 O.2       2 UNK        -0.5286 
     32 CA         23.5950   -3.1226   -0.1074 C.3       2 UNK         0.0209 
     33 CB         22.5535   -4.0861    0.4851 C.3       2 UNK        -0.1931 
     34 N          24.6920   -3.9021   -0.6859 N.am      2 UNK        -0.4546 
     35 C          25.8537   -3.3829   -1.1057 C.2       1 UNK         0.5154 
     36 O          26.1671   -2.2072   -0.9103 O.2       1 UNK        -0.5181 
     37 C          27.0272    1.9752   -4.8545 C.2       5 UNK         0.5014 
     38 O          27.8635    2.8468   -5.0922 O.2       5 UNK        -0.5248 
     39 N          25.7488    2.0645   -5.2639 N.am      6 UNK        -0.4434 
     40 CA         25.2331    3.1236   -6.1381 C.3       6 UNK         0.0363 
     41 CB         23.7001    3.0322   -6.1951 C.3       6 UNK        -0.1936 
     42 C          25.8246    3.0906   -7.5629 C.2       6 UNK         0.5081 
     43 O          25.8135    4.1195   -8.2383 O.2       6 UNK        -0.5248 
     44 N          26.3491    1.9335   -7.9892 N.am      7 UNK        -0.4718 
     45 CA         27.0603    1.7302   -9.2493 C.3       7 UNK         0.0273 
     46 CB         26.4773    0.4927   -9.9576 C.3       7 UNK        -0.1935 
     47 C          28.5639    1.5913   -8.9570 C.2       7 UNK         0.5018 
     48 O          29.1911    0.6173   -9.3783 O.2       7 UNK        -0.5186 
     49 N          29.1195    2.5811   -8.2389 N.am      8 UNK        -0.4240 
     50 CA         30.5010    2.6352   -7.7370 C.3       8 UNK         0.0235 
     51 CB         30.7235    3.9661   -7.0019 C.3       8 UNK        -0.2000 
     52 C          31.6018    2.4222   -8.7925 C.2       8 UNK         0.4941 
     53 O          32.6918    1.9741   -8.4377 O.2       8 UNK        -0.5273 
     54 N          31.2856    2.6770  -10.0711 N.am      9 UNK        -0.4262 
     55 CA         32.1033    2.3462  -11.2426 C.3       9 UNK         0.0264 
     56 CB         31.3675    2.7987  -12.5139 C.3       9 UNK        -0.1955 
     57 C          32.4912    0.8566  -11.3484 C.2       9 UNK         0.5031 
     58 O          33.5091    0.5539  -11.9722 O.2       9 UNK        -0.5390 
     59 N          31.7283   -0.0405  -10.7013 N.am      10 UNK        -0.4204 
     60 CA         32.0566   -1.4600  -10.5272 C.3       10 UNK         0.0237 
     61 CB         30.9007   -2.1602   -9.7941 C.3       10 UNK        -0.1985 
     62 C          33.3874   -1.7139   -9.7891 C.2       10 UNK         0.4970 
     63 O          34.0003   -2.7579  -10.0155 O.2       10 UNK        -0.4914 
     64 N          33.8211   -0.7634   -8.9490 N.am      11 UNK        -0.4285 
     65 CA         35.1446   -0.7554   -8.3086 C.3       11 UNK         0.1007 
     66 C          36.2822   -0.2097   -9.2241 C.2       11 UNK         0.5703 
     67 N          36.0187    0.2493  -10.4428 N.am      11 UNK        -0.7361 
     68 O          37.4446   -0.2205   -8.8252 O.2       11 UNK        -0.4986 
     69 C69        35.1053   -0.0186   -6.9429 C.3       12 UNK        -0.0947 
     70 S70        34.2216   -0.9645   -5.6606 S.3       12 UNK        -0.2240 
     71 C71        32.5407   -0.2714   -5.7443 C.3       12 UNK         0.0194 
     72 H72        23.6789   -7.1813   -3.4785 H         1 UNK         0.0906 
     73 H73        24.8003   -7.0579   -4.8366 H         1 UNK         0.0906 
     74 H74        25.3329   -7.7786   -3.3161 H         1 UNK         0.0906 
     75 H75        26.6061   -6.3941   -2.1224 H         1 UNK         0.3140 
     76 H76        27.5555   -4.6356   -1.1834 H         1 UNK         0.1085 
     77 H77        26.8156   -3.1720   -3.7517 H         1 UNK         0.0836 
     78 H78        27.9707   -2.5937   -2.6188 H         1 UNK         0.0836 
     79 H79        31.1797   -4.5432   -3.3508 H         1 UNK         0.0731 
     80 H80        30.2351   -4.1466   -1.9411 H         1 UNK         0.0731 
     81 H81        31.6767   -2.7775   -5.0984 H         1 UNK         0.1312 
     82 H82        31.5736    1.2846   -3.7116 H         1 UNK         0.1406 
     83 H83        29.7737   -1.8226   -1.3769 H         1 UNK         0.1631 
     84 H84        31.0135    1.4518   -1.0925 H         1 UNK         0.0717 
     85 H85        29.7694    0.3714   -0.5183 H         1 UNK         0.0717 
     86 H86        27.6774   -0.0949   -2.0889 H         1 UNK         0.0934 
     87 H87        26.5845    1.2520   -2.1957 H         1 UNK         0.0934 
     88 H88        28.4700    0.4453   -4.4720 H         1 UNK         0.0739 
     89 H89        25.9746   -0.7965   -3.7881 H         1 UNK         0.3093 
     90 H90        24.8140   -1.4843   -6.8605 H         1 UNK         0.0818 
     91 H91        26.4065   -3.8694   -5.7938 H         1 UNK         0.0819 
     92 H92        25.0553   -3.9164   -6.9156 H         1 UNK         0.0819 
     93 H93        26.5664   -3.1637   -7.3904 H         1 UNK         0.0819 
     94 H94        24.3392   -3.0907   -4.5746 H         1 UNK         0.3041 
     95 H95        22.0234   -0.7315   -3.1060 H         1 UNK         0.0784 
     96 H96        20.9305   -1.8818   -5.0293 H         1 UNK         0.0793 
     97 H97        21.7359   -3.3891   -4.6085 H         1 UNK         0.0793 
     98 H98        20.5508   -2.6821   -3.5127 H         1 UNK         0.0793 
     99 H99        23.5674   -3.2718   -2.6923 H         1 UNK         0.3024 
    100 H100       24.0022   -2.5124    0.7022 H         1 UNK         0.1171 
    101 H101       22.9928   -4.7227    1.2535 H         1 UNK         0.0786 
    102 H102       21.7346   -3.5367    0.9519 H         1 UNK         0.0786 
    103 H103       22.1188   -4.7312   -0.2795 H         1 UNK         0.0786 
    104 H104       24.5100   -4.8746   -0.8884 H         1 UNK         0.2977 
    105 H105       25.1001    1.3147   -5.0417 H         1 UNK         0.3127 
    106 H106       25.5025    4.0845   -5.6947 H         1 UNK         0.0770 
    107 H107       23.3690    2.0941   -6.6426 H         1 UNK         0.0814 
    108 H108       23.2825    3.8436   -6.7928 H         1 UNK         0.0814 
    109 H109       23.2596    3.1025   -5.2005 H         1 UNK         0.0814 
    110 H110       26.3998    1.1514   -7.3446 H         1 UNK         0.2983 
    111 H111       26.9341    2.5900   -9.9106 H         1 UNK         0.0947 
    112 H112       26.9660    0.3259  -10.9183 H         1 UNK         0.0806 
    113 H113       25.4117    0.6129  -10.1524 H         1 UNK         0.0806 
    114 H114       26.6096   -0.4123   -9.3628 H         1 UNK         0.0806 
    115 H115       28.5087    3.3223   -7.9250 H         1 UNK         0.3000 
    116 H116       30.5985    1.8255   -7.0113 H         1 UNK         0.0850 
    117 H117       31.7346    4.0244   -6.5959 H         1 UNK         0.0810 
    118 H118       30.0361    4.0777   -6.1633 H         1 UNK         0.0810 
    119 H119       30.5878    4.8212   -7.6652 H         1 UNK         0.0810 
    120 H120       30.3629    3.0414  -10.2571 H         1 UNK         0.3040 
    121 H121       33.0320    2.9145  -11.1599 H         1 UNK         0.0766 
    122 H122       31.1724    3.8711  -12.5009 H         1 UNK         0.0812 
    123 H123       30.4136    2.2831  -12.6329 H         1 UNK         0.0812 
    124 H124       31.9631    2.5913  -13.4042 H         1 UNK         0.0812 
    125 H125       30.8867    0.2848  -10.2288 H         1 UNK         0.3205 
    126 H126       32.1485   -1.8982  -11.5230 H         1 UNK         0.0754 
    127 H127       31.0985   -3.2265   -9.6762 H         1 UNK         0.0769 
    128 H128       29.9646   -2.0631  -10.3447 H         1 UNK         0.0769 
    129 H129       30.7448   -1.7436   -8.7978 H         1 UNK         0.0769 
    130 H130       33.2806    0.0880   -8.8358 H         1 UNK         0.2981 
    131 H131       35.4271   -1.7903   -8.1061 H         1 UNK         0.0541 
    132 H132       35.0772    0.2559  -10.8202 H         1 UNK         0.3459 
    133 H133       36.7806    0.5864  -11.0089 H         1 UNK         0.3459 
    134 H134       34.6753    0.9784   -7.0423 H         1 UNK         0.0612 
    135 H135       36.1150    0.1333   -6.5573 H         1 UNK         0.0612 
    136 H136       32.6019    0.8165   -5.7983 H         1 UNK         0.0624 
    137 H137       32.0500   -0.6056   -6.6594 H         1 UNK         0.0624 
@<TRIPOS>BOND
     1    1    2 1    
     2    1   72 1    
     3    1   73 1    
     4    1   74 1    
     5    2    3 2    
     6    2    4 am   BACKBONE|DICT|INTERRES
     7    4    5 1    
     8    4   75 1    
     9    5    6 1    
    10    5   35 1    
    11    5   76 1    
    12    6    7 1    
    13    6   77 1    
    14    6   78 1    
    15    7    8 1    
    16    8    9 1    
    17    8   79 1    
    18    8   80 1    
    19    9   10 ar   
    20    9   14 ar   
    21   10   11 ar   
    22   10   81 1    
    23   11   12 ar   
    24   11   71 1    
    25   12   13 ar   
    26   12   82 1    
    27   13   14 ar   
    28   13   15 1    
    29   14   83 1    
    30   15   16 1    
    31   15   84 1    
    32   15   85 1    
    33   16   17 1    
    34   17   18 1    
    35   17   86 1    
    36   17   87 1    
    37   18   19 1    
    38   18   37 1    
    39   18   88 1    
    40   19   20 am   BACKBONE|DICT|INTERRES
    41   19   89 1    
    42   20   21 2    
    43   20   22 1    
    44   22   23 1    
    45   22   24 1    
    46   22   90 1    
    47   23   91 1    
    48   23   92 1    
    49   23   93 1    
    50   24   25 am   BACKBONE|DICT|INTERRES
    51   24   94 1    
    52   25   26 2    
    53   25   27 1    
    54   27   28 1    
    55   27   29 1    
    56   27   95 1    
    57   28   96 1    
    58   28   97 1    
    59   28   98 1    
    60   29   30 am   BACKBONE|DICT|INTERRES
    61   29   99 1    
    62   30   31 2    
    63   30   32 1    
    64   32   33 1    
    65   32   34 1    
    66   32  100 1    
    67   33  101 1    
    68   33  102 1    
    69   33  103 1    
    70   34   35 am   BACKBONE|DICT|INTERRES
    71   34  104 1    
    72   35   36 2    
    73   37   38 2    
    74   37   39 am   BACKBONE|DICT|INTERRES
    75   39   40 1    
    76   39  105 1    
    77   40   41 1    
    78   40   42 1    
    79   40  106 1    
    80   41  107 1    
    81   41  108 1    
    82   41  109 1    
    83   42   43 2    
    84   42   44 am   BACKBONE|DICT|INTERRES
    85   44   45 1    
    86   44  110 1    
    87   45   46 1    
    88   45   47 1    
    89   45  111 1    
    90   46  112 1    
    91   46  113 1    
    92   46  114 1    
    93   47   48 2    
    94   47   49 am   BACKBONE|DICT|INTERRES
    95   49   50 1    
    96   49  115 1    
    97   50   51 1    
    98   50   52 1    
    99   50  116 1    
   100   51  117 1    
   101   51  118 1    
   102   51  119 1    
   103   52   53 2    
   104   52   54 am   BACKBONE|DICT|INTERRES
   105   54   55 1    
   106   54  120 1    
   107   55   56 1    
   108   55   57 1    
   109   55  121 1    
   110   56  122 1    
   111   56  123 1    
   112   56  124 1    
   113   57   58 2    
   114   57   59 am   BACKBONE|DICT|INTERRES
   115   59   60 1    
   116   59  125 1    
   117   60   61 1    
   118   60   62 1    
   119   60  126 1    
   120   61  127 1    
   121   61  128 1    
   122   61  129 1    
   123   62   63 2    
   124   62   64 am   BACKBONE|DICT|INTERRES
   125   64   65 1    
   126   64  130 1    
   127   65   66 1    
   128   65   69 1    
   129   65  131 1    
   130   66   67 am   BACKBONE|DICT|INTERRES
   131   66   68 2    
   132   67  132 1    
   133   67  133 1    
   134   69   70 1    
   135   69  134 1    
   136   69  135 1    
   137   70   71 1    
   138   71  136 1    
   139   71  137 1    
@<TRIPOS>SUBSTRUCTURE
     1 UNK         1 GROUP             0       ****    0 ROOT    
