@<TRIPOS>MOLECULE
3R137
137   139    1
SMALL
USER_CHARGES


@<TRIPOS>ATOM
      1 CA         28.1860   -2.5021    2.0836 C.3       0 UNK        -0.2020 
      2 C          27.9989   -2.3592    0.5814 C.2       0 UNK         0.4855 
      3 O          27.9016   -1.2424    0.0784 O.2       0 UNK        -0.5197 
      4 N          27.9196   -3.4813   -0.1440 N.am      1 UNK        -0.4892 
      5 CA         27.7906   -3.5715   -1.6081 C.3       1 UNK         0.0835 
      6 C6         28.3957   -4.9134   -2.1090 C.3       12 UNK        -0.0855 
      7 S7         29.2007   -4.8192   -3.7439 S.3       12 UNK        -0.2931 
      8 C8         30.8771   -4.2247   -3.3438 C.3       12 UNK         0.0378 
      9 C9         30.9943   -2.7262   -3.5784 C.ar      12 UNK        -0.0802 
     10 C10        31.2427   -2.2405   -4.8664 C.ar      12 UNK        -0.0944 
     11 C11        31.3211   -0.8653   -5.1015 C.ar      12 UNK        -0.0787 
     12 C12        31.1609    0.0236   -4.0369 C.ar      12 UNK        -0.0862 
     13 C13        30.8670   -0.4463   -2.7547 C.ar      12 UNK        -0.0733 
     14 C14        30.8206   -1.8244   -2.5239 C.ar      12 UNK        -0.0832 
     15 C15        30.5393    0.5318   -1.6327 C.3       12 UNK         0.0240 
     16 S16        29.2257    1.7238   -2.0848 S.3       12 UNK        -0.2522 
     17 C17        27.8957    0.6551   -2.7463 C.3       12 UNK        -0.0967 
     18 CA         27.7638    0.7631   -4.2891 C.3       5 UNK         0.0660 
     19 N          27.1437   -0.4221   -4.8831 N.am      5 UNK        -0.4015 
     20 C          27.2722   -0.7779   -6.1701 C.2       4 UNK         0.4946 
     21 O          27.9856   -0.1842   -6.9795 O.2       4 UNK        -0.5353 
     22 CA         26.4377   -1.9743   -6.6573 C.3       4 UNK         0.0277 
     23 CB         27.2277   -3.2811   -6.5130 C.3       4 UNK        -0.1981 
     24 N          25.1537   -2.1004   -5.9639 N.am      4 UNK        -0.4209 
     25 C          24.1409   -1.2336   -6.1052 C.2       3 UNK         0.4942 
     26 O          24.1727   -0.2672   -6.8644 O.2       3 UNK        -0.5208 
     27 CA         22.9061   -1.4395   -5.2119 C.3       3 UNK         0.0250 
     28 CB         21.9034   -2.3854   -5.8909 C.3       3 UNK        -0.1990 
     29 N          23.2144   -1.9351   -3.8669 N.am      3 UNK        -0.4232 
     30 C          24.0466   -1.3525   -2.9920 C.2       2 UNK         0.4993 
     31 O          24.6871   -0.3276   -3.2371 O.2       2 UNK        -0.5286 
     32 CA         24.2222   -2.0261   -1.6200 C.3       2 UNK         0.0209 
     33 CB         23.2613   -3.2090   -1.3569 C.3       2 UNK        -0.1931 
     34 N          25.6128   -2.4340   -1.3964 N.am      2 UNK        -0.4546 
     35 C          26.3511   -3.2921   -2.1169 C.2       1 UNK         0.5154 
     36 O          25.9328   -3.8491   -3.1336 O.2       1 UNK        -0.5181 
     37 C          27.0258    2.0389   -4.7299 C.2       5 UNK         0.5014 
     38 O          27.6780    3.0118   -5.1097 O.2       5 UNK        -0.5248 
     39 N          25.6844    1.9954   -4.7245 N.am      6 UNK        -0.4434 
     40 CA         24.8146    3.0769   -5.1970 C.3       6 UNK         0.0363 
     41 CB         23.3480    2.7272   -4.9000 C.3       6 UNK        -0.1936 
     42 C          25.0087    3.3998   -6.6904 C.2       6 UNK         0.5081 
     43 O          25.0552    4.5749   -7.0548 O.2       6 UNK        -0.5248 
     44 N          25.1423    2.3572   -7.5214 N.am      7 UNK        -0.4718 
     45 CA         25.4179    2.4671   -8.9565 C.3       7 UNK         0.0273 
     46 CB         25.0278    1.1459   -9.6400 C.3       7 UNK        -0.1935 
     47 C          26.8826    2.8106   -9.2842 C.2       7 UNK         0.5018 
     48 O          27.1470    3.2420  -10.4071 O.2       7 UNK        -0.5186 
     49 N          27.7980    2.5852   -8.3276 N.am      8 UNK        -0.4240 
     50 CA         29.2603    2.6546   -8.4545 C.3       8 UNK         0.0235 
     51 CB         29.7323    4.1053   -8.6856 C.3       8 UNK        -0.2000 
     52 C          29.7771    1.6676   -9.5202 C.2       8 UNK         0.4941 
     53 O          30.4993    2.0571  -10.4416 O.2       8 UNK        -0.5273 
     54 N          29.3490    0.4043   -9.3971 N.am      9 UNK        -0.4262 
     55 CA         29.5511   -0.6739  -10.3667 C.3       9 UNK         0.0264 
     56 CB         28.5258   -1.7859  -10.0783 C.3       9 UNK        -0.1955 
     57 C          30.9989   -1.2019  -10.3938 C.2       9 UNK         0.5031 
     58 O          31.2452   -2.3424   -9.9951 O.2       9 UNK        -0.5390 
     59 N          31.9329   -0.3554  -10.8497 N.am      10 UNK        -0.4204 
     60 CA         33.3750   -0.5722  -11.0668 C.3       10 UNK         0.0237 
     61 CB         33.6252   -1.6909  -12.0971 C.3       10 UNK        -0.1985 
     62 C          34.2051   -0.8048   -9.7898 C.2       10 UNK         0.4970 
     63 O          35.3103   -0.2708   -9.6902 O.2       10 UNK        -0.4914 
     64 N          33.6554   -1.5714   -8.8435 N.am      11 UNK        -0.4285 
     65 CA         34.1750   -1.8382   -7.4922 C.3       11 UNK         0.1007 
     66 C          35.4314   -2.7585   -7.4428 C.2       11 UNK         0.5703 
     67 N          35.7888   -3.4487   -8.5195 N.am      11 UNK        -0.7361 
     68 O          36.0772   -2.8776   -6.4040 O.2       11 UNK        -0.4986 
     69 C69        34.3422   -0.5519   -6.6254 C.3       12 UNK        -0.0947 
     70 S70        32.9863    0.6735   -6.7238 S.3       12 UNK        -0.2240 
     71 C71        31.4815   -0.3288   -6.5140 C.3       12 UNK         0.0194 
     72 H72        27.3499   -2.0436    2.6109 H         1 UNK         0.0906 
     73 H73        28.2504   -3.5458    2.3903 H         1 UNK         0.0906 
     74 H74        29.1015   -1.9999    2.3952 H         1 UNK         0.0906 
     75 H75        27.9516   -4.3694    0.3378 H         1 UNK         0.3140 
     76 H76        28.3823   -2.7614   -2.0305 H         1 UNK         0.1085 
     77 H77        27.6353   -5.6962   -2.1397 H         1 UNK         0.0836 
     78 H78        29.1462   -5.2828   -1.4082 H         1 UNK         0.0836 
     79 H79        31.5936   -4.7478   -3.9789 H         1 UNK         0.0731 
     80 H80        31.1443   -4.4788   -2.3171 H         1 UNK         0.0731 
     81 H81        31.3425   -2.9355   -5.6887 H         1 UNK         0.1312 
     82 H82        31.1965    1.0887   -4.2219 H         1 UNK         0.1406 
     83 H83        30.6088   -2.1954   -1.5301 H         1 UNK         0.1631 
     84 H84        31.4417    1.0831   -1.3660 H         1 UNK         0.0717 
     85 H85        30.2258   -0.0013   -0.7340 H         1 UNK         0.0717 
     86 H86        28.1112   -0.3743   -2.4616 H         1 UNK         0.0934 
     87 H87        26.9575    0.9005   -2.2447 H         1 UNK         0.0934 
     88 H88        28.7648    0.8310   -4.7132 H         1 UNK         0.0739 
     89 H89        26.4629   -0.9035   -4.3104 H         1 UNK         0.3093 
     90 H90        26.2366   -1.8153   -7.7189 H         1 UNK         0.0818 
     91 H91        28.2294   -3.1929   -6.9356 H         1 UNK         0.0819 
     92 H92        26.7292   -4.1050   -7.0235 H         1 UNK         0.0819 
     93 H93        27.3410   -3.5572   -5.4664 H         1 UNK         0.0819 
     94 H94        25.0623   -2.8544   -5.2949 H         1 UNK         0.3041 
     95 H95        22.4263   -0.4665   -5.0927 H         1 UNK         0.0784 
     96 H96        21.6424   -2.0264   -6.8877 H         1 UNK         0.0793 
     97 H97        22.3082   -3.3921   -6.0027 H         1 UNK         0.0793 
     98 H98        20.9759   -2.4566   -5.3223 H         1 UNK         0.0793 
     99 H99        22.7525   -2.7870   -3.5829 H         1 UNK         0.3024 
    100 H100       24.0027   -1.2527   -0.8820 H         1 UNK         0.1171 
    101 H101       23.3910   -3.5949   -0.3455 H         1 UNK         0.0786 
    102 H102       22.2186   -2.9003   -1.4441 H         1 UNK         0.0786 
    103 H103       23.4245   -4.0398   -2.0444 H         1 UNK         0.0786 
    104 H104       26.0931   -1.9635   -0.6369 H         1 UNK         0.2977 
    105 H105       25.2302    1.1647   -4.3526 H         1 UNK         0.3127 
    106 H106       25.0719    3.9735   -4.6291 H         1 UNK         0.0770 
    107 H107       23.0216    1.8501   -5.4585 H         1 UNK         0.0814 
    108 H108       22.6890    3.5513   -5.1763 H         1 UNK         0.0814 
    109 H109       23.1922    2.5278   -3.8396 H         1 UNK         0.0814 
    110 H110       24.9986    1.4173   -7.1578 H         1 UNK         0.2983 
    111 H111       24.7951    3.2638   -9.3695 H         1 UNK         0.0947 
    112 H112       25.1862    1.1986  -10.7180 H         1 UNK         0.0806 
    113 H113       23.9756    0.9109   -9.4784 H         1 UNK         0.0806 
    114 H114       25.6187    0.3099   -9.2632 H         1 UNK         0.0806 
    115 H115       27.4609    2.2222   -7.4456 H         1 UNK         0.3000 
    116 H116       29.6667    2.3267   -7.4970 H         1 UNK         0.0850 
    117 H117       30.8213    4.1646   -8.6756 H         1 UNK         0.0810 
    118 H118       29.3634    4.7693   -7.9038 H         1 UNK         0.0810 
    119 H119       29.3953    4.4965   -9.6459 H         1 UNK         0.0810 
    120 H120       28.7966    0.1705   -8.5719 H         1 UNK         0.3040 
    121 H121       29.3352   -0.2792  -11.3618 H         1 UNK         0.0766 
    122 H122       27.5042   -1.4102  -10.1368 H         1 UNK         0.0812 
    123 H123       28.6695   -2.2140   -9.0863 H         1 UNK         0.0812 
    124 H124       28.6147   -2.5982  -10.8008 H         1 UNK         0.0812 
    125 H125       31.6084    0.5950  -11.0200 H         1 UNK         0.3205 
    126 H126       33.7416    0.3585  -11.5030 H         1 UNK         0.0754 
    127 H127       34.6888   -1.7823  -12.3218 H         1 UNK         0.0769 
    128 H128       33.1129   -1.4848  -13.0369 H         1 UNK         0.0769 
    129 H129       33.2858   -2.6627  -11.7372 H         1 UNK         0.0769 
    130 H130       32.7585   -1.9964   -9.0705 H         1 UNK         0.2981 
    131 H131       33.4018   -2.4406   -7.0170 H         1 UNK         0.0541 
    132 H132       35.2623   -3.3671   -9.3742 H         1 UNK         0.3459 
    133 H133       36.5962   -4.0501   -8.4762 H         1 UNK         0.3459 
    134 H134       34.4599   -0.8251   -5.5753 H         1 UNK         0.0612 
    135 H135       35.2607   -0.0326   -6.9036 H         1 UNK         0.0612 
    136 H136       30.6234    0.3059   -6.7290 H         1 UNK         0.0624 
    137 H137       31.4446   -1.1294   -7.2519 H         1 UNK         0.0624 
@<TRIPOS>BOND
     1    1    2 1    
     2    1   72 1    
     3    1   73 1    
     4    1   74 1    
     5    2    3 2    
     6    2    4 am   BACKBONE|DICT|INTERRES
     7    4    5 1    
     8    4   75 1    
     9    5    6 1    
    10    5   35 1    
    11    5   76 1    
    12    6    7 1    
    13    6   77 1    
    14    6   78 1    
    15    7    8 1    
    16    8    9 1    
    17    8   79 1    
    18    8   80 1    
    19    9   10 ar   
    20    9   14 ar   
    21   10   11 ar   
    22   10   81 1    
    23   11   12 ar   
    24   11   71 1    
    25   12   13 ar   
    26   12   82 1    
    27   13   14 ar   
    28   13   15 1    
    29   14   83 1    
    30   15   16 1    
    31   15   84 1    
    32   15   85 1    
    33   16   17 1    
    34   17   18 1    
    35   17   86 1    
    36   17   87 1    
    37   18   19 1    
    38   18   37 1    
    39   18   88 1    
    40   19   20 am   BACKBONE|DICT|INTERRES
    41   19   89 1    
    42   20   21 2    
    43   20   22 1    
    44   22   23 1    
    45   22   24 1    
    46   22   90 1    
    47   23   91 1    
    48   23   92 1    
    49   23   93 1    
    50   24   25 am   BACKBONE|DICT|INTERRES
    51   24   94 1    
    52   25   26 2    
    53   25   27 1    
    54   27   28 1    
    55   27   29 1    
    56   27   95 1    
    57   28   96 1    
    58   28   97 1    
    59   28   98 1    
    60   29   30 am   BACKBONE|DICT|INTERRES
    61   29   99 1    
    62   30   31 2    
    63   30   32 1    
    64   32   33 1    
    65   32   34 1    
    66   32  100 1    
    67   33  101 1    
    68   33  102 1    
    69   33  103 1    
    70   34   35 am   BACKBONE|DICT|INTERRES
    71   34  104 1    
    72   35   36 2    
    73   37   38 2    
    74   37   39 am   BACKBONE|DICT|INTERRES
    75   39   40 1    
    76   39  105 1    
    77   40   41 1    
    78   40   42 1    
    79   40  106 1    
    80   41  107 1    
    81   41  108 1    
    82   41  109 1    
    83   42   43 2    
    84   42   44 am   BACKBONE|DICT|INTERRES
    85   44   45 1    
    86   44  110 1    
    87   45   46 1    
    88   45   47 1    
    89   45  111 1    
    90   46  112 1    
    91   46  113 1    
    92   46  114 1    
    93   47   48 2    
    94   47   49 am   BACKBONE|DICT|INTERRES
    95   49   50 1    
    96   49  115 1    
    97   50   51 1    
    98   50   52 1    
    99   50  116 1    
   100   51  117 1    
   101   51  118 1    
   102   51  119 1    
   103   52   53 2    
   104   52   54 am   BACKBONE|DICT|INTERRES
   105   54   55 1    
   106   54  120 1    
   107   55   56 1    
   108   55   57 1    
   109   55  121 1    
   110   56  122 1    
   111   56  123 1    
   112   56  124 1    
   113   57   58 2    
   114   57   59 am   BACKBONE|DICT|INTERRES
   115   59   60 1    
   116   59  125 1    
   117   60   61 1    
   118   60   62 1    
   119   60  126 1    
   120   61  127 1    
   121   61  128 1    
   122   61  129 1    
   123   62   63 2    
   124   62   64 am   BACKBONE|DICT|INTERRES
   125   64   65 1    
   126   64  130 1    
   127   65   66 1    
   128   65   69 1    
   129   65  131 1    
   130   66   67 am   BACKBONE|DICT|INTERRES
   131   66   68 2    
   132   67  132 1    
   133   67  133 1    
   134   69   70 1    
   135   69  134 1    
   136   69  135 1    
   137   70   71 1    
   138   71  136 1    
   139   71  137 1    
@<TRIPOS>SUBSTRUCTURE
     1 UNK         1 GROUP             0       ****    0 ROOT    
