@<TRIPOS>MOLECULE
3R137
137   139    1
SMALL
USER_CHARGES


@<TRIPOS>ATOM
      1 CA         24.9681   -6.6139   -3.7856 C.3       0 UNK        -0.2020 
      2 C          25.3160   -5.5502   -2.7552 C.2       0 UNK         0.4855 
      3 O          24.4381   -4.7938   -2.3368 O.2       0 UNK        -0.5197 
      4 N          26.5908   -5.4904   -2.3444 N.am      1 UNK        -0.4892 
      5 CA         27.1419   -4.5391   -1.3719 C.3       1 UNK         0.0835 
      6 C6         28.6373   -4.8378   -1.1021 C.3       12 UNK        -0.0855 
      7 S7         29.3232   -3.8866    0.3004 S.3       12 UNK        -0.2931 
      8 C8         31.0741   -3.6950   -0.1806 C.3       12 UNK         0.0378 
      9 C9         31.2384   -2.9394   -1.4929 C.ar      12 UNK        -0.0802 
     10 C10        31.7066   -3.6006   -2.6323 C.ar      12 UNK        -0.0944 
     11 C11        31.8187   -2.9231   -3.8489 C.ar      12 UNK        -0.0787 
     12 C12        31.4551   -1.5744   -3.9237 C.ar      12 UNK        -0.0862 
     13 C13        30.9955   -0.8976   -2.7898 C.ar      12 UNK        -0.0733 
     14 C14        30.9067   -1.5840   -1.5730 C.ar      12 UNK        -0.0832 
     15 C15        30.5780    0.5657   -2.8854 C.3       12 UNK         0.0240 
     16 S16        28.8727    0.7908   -2.2924 S.3       12 UNK        -0.2522 
     17 C17        28.2058    2.1107   -3.3603 C.3       12 UNK        -0.0967 
     18 CA         28.0613    1.7476   -4.8668 C.3       5 UNK         0.0660 
     19 N          27.7629    0.3362   -5.1167 N.am      5 UNK        -0.4015 
     20 C          27.8926   -0.2729   -6.3035 C.2       4 UNK         0.4946 
     21 O          28.3415    0.2731   -7.3108 O.2       4 UNK        -0.5353 
     22 CA         27.4123   -1.7300   -6.3887 C.3       4 UNK         0.0277 
     23 CB         28.5539   -2.6987   -6.0406 C.3       4 UNK        -0.1981 
     24 N          26.2567   -1.9820   -5.5220 N.am      4 UNK        -0.4209 
     25 C          25.0264   -1.5021   -5.7676 C.2       3 UNK         0.4942 
     26 O          24.7417   -0.8459   -6.7680 O.2       3 UNK        -0.5208 
     27 CA         23.9341   -1.7485   -4.7116 C.3       3 UNK         0.0250 
     28 CB         23.1796   -3.0518   -5.0117 C.3       3 UNK        -0.1990 
     29 N          24.4459   -1.7746   -3.3401 N.am      3 UNK        -0.4232 
     30 C          25.0439   -0.7352   -2.7372 C.2       2 UNK         0.4993 
     31 O          25.1753    0.3722   -3.2613 O.2       2 UNK        -0.5286 
     32 CA         25.6395   -0.9751   -1.3381 C.3       2 UNK         0.0209 
     33 CB         24.6427   -0.5355   -0.2545 C.3       2 UNK        -0.1931 
     34 N          26.0634   -2.3556   -1.0751 N.am      2 UNK        -0.4546 
     35 C          26.9014   -3.0838   -1.8294 C.2       1 UNK         0.5154 
     36 O          27.4148   -2.6813   -2.8756 O.2       1 UNK        -0.5181 
     37 C          27.0015    2.6382   -5.5430 C.2       5 UNK         0.5014 
     38 O          27.3571    3.5772   -6.2556 O.2       5 UNK        -0.5248 
     39 N          25.7183    2.3020   -5.3311 N.am      6 UNK        -0.4434 
     40 CA         24.5537    2.9872   -5.9025 C.3       6 UNK         0.0363 
     41 CB         23.2685    2.3831   -5.3161 C.3       6 UNK        -0.1936 
     42 C          24.5088    2.9544   -7.4405 C.2       6 UNK         0.5081 
     43 O          24.0570    3.9223   -8.0523 O.2       6 UNK        -0.5248 
     44 N          25.0080    1.8645   -8.0389 N.am      7 UNK        -0.4718 
     45 CA         25.1742    1.6985   -9.4853 C.3       7 UNK         0.0273 
     46 CB         25.3934    0.2073   -9.7929 C.3       7 UNK        -0.1935 
     47 C          26.3154    2.5391  -10.0916 C.2       7 UNK         0.5018 
     48 O          26.4560    2.5399  -11.3152 O.2       7 UNK        -0.5186 
     49 N          27.1339    3.1971   -9.2547 N.am      8 UNK        -0.4240 
     50 CA         28.3073    4.0288   -9.5660 C.3       8 UNK         0.0235 
     51 CB         27.9441    5.2163  -10.4786 C.3       8 UNK        -0.2000 
     52 C          29.5157    3.2502  -10.1158 C.2       8 UNK         0.4941 
     53 O          30.6500    3.5765   -9.7612 O.2       8 UNK        -0.5273 
     54 N          29.2730    2.2194  -10.9342 N.am      9 UNK        -0.4262 
     55 CA         30.2565    1.2701  -11.4592 C.3       9 UNK         0.0264 
     56 CB         29.6492    0.5570  -12.6819 C.3       9 UNK        -0.1955 
     57 C          30.7356    0.2840  -10.3732 C.2       9 UNK         0.5031 
     58 O          30.5345   -0.9264  -10.4981 O.2       9 UNK        -0.5390 
     59 N          31.3439    0.8321   -9.3155 N.am      10 UNK        -0.4204 
     60 CA         31.9043    0.1072   -8.1777 C.3       10 UNK         0.0237 
     61 CB         32.2177    1.1151   -7.0581 C.3       10 UNK        -0.1985 
     62 C          33.1579   -0.7002   -8.5573 C.2       10 UNK         0.4970 
     63 O          33.8193   -0.4024   -9.5549 O.2       10 UNK        -0.4914 
     64 N          33.4683   -1.6940   -7.7205 N.am      11 UNK        -0.4285 
     65 CA         34.6162   -2.6046   -7.8452 C.3       11 UNK         0.1007 
     66 C          36.0176   -1.9627   -7.6120 C.2       11 UNK         0.5703 
     67 N          36.1176   -0.7360   -7.1133 N.am      11 UNK        -0.7361 
     68 O          37.0339   -2.5894   -7.9029 O.2       11 UNK        -0.4986 
     69 C69        34.4021   -3.8779   -6.9809 C.3       12 UNK        -0.0947 
     70 S70        34.1354   -3.5100   -5.2106 S.3       12 UNK        -0.2240 
     71 C71        32.3262   -3.6497   -5.0832 C.3       12 UNK         0.0194 
     72 H72        25.7857   -7.3189   -3.9351 H         1 UNK         0.0906 
     73 H73        24.0935   -7.1775   -3.4617 H         1 UNK         0.0906 
     74 H74        24.7392   -6.1518   -4.7449 H         1 UNK         0.0906 
     75 H75        27.2615   -6.1261   -2.7522 H         1 UNK         0.3140 
     76 H76        26.5989   -4.7011   -0.4381 H         1 UNK         0.1085 
     77 H77        28.7690   -5.8955   -0.8684 H         1 UNK         0.0836 
     78 H78        29.2184   -4.6580   -2.0071 H         1 UNK         0.0836 
     79 H79        31.5355   -4.6821   -0.2398 H         1 UNK         0.0731 
     80 H80        31.6013   -3.1585    0.6095 H         1 UNK         0.0731 
     81 H81        31.9752   -4.6468   -2.5770 H         1 UNK         0.1312 
     82 H82        31.5244   -1.0531   -4.8671 H         1 UNK         0.1406 
     83 H83        30.5401   -1.0721   -0.6935 H         1 UNK         0.1631 
     84 H84        30.6620    0.9199   -3.9132 H         1 UNK         0.0717 
     85 H85        31.2526    1.1791   -2.2869 H         1 UNK         0.0717 
     86 H86        27.2375    2.3717   -2.9272 H         1 UNK         0.0934 
     87 H87        28.8255    3.0022   -3.2482 H         1 UNK         0.0934 
     88 H88        29.0174    1.9608   -5.3495 H         1 UNK         0.0739 
     89 H89        27.3977   -0.1870   -4.3329 H         1 UNK         0.3093 
     90 H90        27.1110   -1.9191   -7.4215 H         1 UNK         0.0818 
     91 H91        28.9211   -2.5454   -5.0256 H         1 UNK         0.0819 
     92 H92        28.2349   -3.7373   -6.1273 H         1 UNK         0.0819 
     93 H93        29.3986   -2.5605   -6.7165 H         1 UNK         0.0819 
     94 H94        26.4443   -2.4492   -4.6396 H         1 UNK         0.3041 
     95 H95        23.2215   -0.9244   -4.7764 H         1 UNK         0.0784 
     96 H96        22.7231   -3.0175   -6.0019 H         1 UNK         0.0793 
     97 H97        23.8442   -3.9148   -4.9904 H         1 UNK         0.0793 
     98 H98        22.3799   -3.2254   -4.2913 H         1 UNK         0.0793 
     99 H99        24.3991   -2.6610   -2.8489 H         1 UNK         0.3024 
    100 H100       26.5250   -0.3461   -1.2550 H         1 UNK         0.1171 
    101 H101       24.3275    0.4975   -0.4106 H         1 UNK         0.0786 
    102 H102       25.0867   -0.5884    0.7397 H         1 UNK         0.0786 
    103 H103       23.7446   -1.1545   -0.2569 H         1 UNK         0.0786 
    104 H104       25.6630   -2.7902   -0.2562 H         1 UNK         0.2977 
    105 H105       25.5208    1.5348   -4.6900 H         1 UNK         0.3127 
    106 H106       24.6104    4.0343   -5.5980 H         1 UNK         0.0770 
    107 H107       23.1531    1.3368   -5.5992 H         1 UNK         0.0814 
    108 H108       22.3876    2.9170   -5.6749 H         1 UNK         0.0814 
    109 H109       23.2618    2.4391   -4.2274 H         1 UNK         0.0814 
    110 H110       25.2799    1.0765   -7.4604 H         1 UNK         0.2983 
    111 H111       24.2508    2.0167   -9.9738 H         1 UNK         0.0947 
    112 H112       25.4993    0.0349  -10.8648 H         1 UNK         0.0806 
    113 H113       24.5505   -0.3951   -9.4540 H         1 UNK         0.0806 
    114 H114       26.2942   -0.1739   -9.3098 H         1 UNK         0.0806 
    115 H115       26.9553    3.0967   -8.2608 H         1 UNK         0.3000 
    116 H116       28.6237    4.4429   -8.6071 H         1 UNK         0.0850 
    117 H117       28.7957    5.8877  -10.5967 H         1 UNK         0.0810 
    118 H118       27.1255    5.8016  -10.0596 H         1 UNK         0.0810 
    119 H119       27.6494    4.8925  -11.4771 H         1 UNK         0.0810 
    120 H120       28.3014    2.0569  -11.1831 H         1 UNK         0.3040 
    121 H121       31.1312    1.8290  -11.7985 H         1 UNK         0.0766 
    122 H122       29.3733    1.2690  -13.4599 H         1 UNK         0.0812 
    123 H123       28.7566   -0.0105  -12.4151 H         1 UNK         0.0812 
    124 H124       30.3625   -0.1415  -13.1214 H         1 UNK         0.0812 
    125 H125       31.4254    1.8448   -9.3061 H         1 UNK         0.3205 
    126 H126       31.1419   -0.5885   -7.8195 H         1 UNK         0.0754 
    127 H127       32.6411    0.6241   -6.1816 H         1 UNK         0.0769 
    128 H128       31.3145    1.6324   -6.7325 H         1 UNK         0.0769 
    129 H129       32.9350    1.8689   -7.3857 H         1 UNK         0.0769 
    130 H130       32.9014   -1.8385   -6.9005 H         1 UNK         0.2981 
    131 H131       34.6318   -2.9341   -8.8858 H         1 UNK         0.0541 
    132 H132       37.0309   -0.3338   -6.9740 H         1 UNK         0.3459 
    133 H133       35.2925   -0.2119   -6.8743 H         1 UNK         0.3459 
    134 H134       33.5490   -4.4422   -7.3608 H         1 UNK         0.0612 
    135 H135       35.2554   -4.5529   -7.0682 H         1 UNK         0.0612 
    136 H136       31.8494   -3.2394   -5.9738 H         1 UNK         0.0624 
    137 H137       32.0488   -4.7044   -5.0468 H         1 UNK         0.0624 
@<TRIPOS>BOND
     1    1    2 1    
     2    1   72 1    
     3    1   73 1    
     4    1   74 1    
     5    2    3 2    
     6    2    4 am   BACKBONE|DICT|INTERRES
     7    4    5 1    
     8    4   75 1    
     9    5    6 1    
    10    5   35 1    
    11    5   76 1    
    12    6    7 1    
    13    6   77 1    
    14    6   78 1    
    15    7    8 1    
    16    8    9 1    
    17    8   79 1    
    18    8   80 1    
    19    9   10 ar   
    20    9   14 ar   
    21   10   11 ar   
    22   10   81 1    
    23   11   12 ar   
    24   11   71 1    
    25   12   13 ar   
    26   12   82 1    
    27   13   14 ar   
    28   13   15 1    
    29   14   83 1    
    30   15   16 1    
    31   15   84 1    
    32   15   85 1    
    33   16   17 1    
    34   17   18 1    
    35   17   86 1    
    36   17   87 1    
    37   18   19 1    
    38   18   37 1    
    39   18   88 1    
    40   19   20 am   BACKBONE|DICT|INTERRES
    41   19   89 1    
    42   20   21 2    
    43   20   22 1    
    44   22   23 1    
    45   22   24 1    
    46   22   90 1    
    47   23   91 1    
    48   23   92 1    
    49   23   93 1    
    50   24   25 am   BACKBONE|DICT|INTERRES
    51   24   94 1    
    52   25   26 2    
    53   25   27 1    
    54   27   28 1    
    55   27   29 1    
    56   27   95 1    
    57   28   96 1    
    58   28   97 1    
    59   28   98 1    
    60   29   30 am   BACKBONE|DICT|INTERRES
    61   29   99 1    
    62   30   31 2    
    63   30   32 1    
    64   32   33 1    
    65   32   34 1    
    66   32  100 1    
    67   33  101 1    
    68   33  102 1    
    69   33  103 1    
    70   34   35 am   BACKBONE|DICT|INTERRES
    71   34  104 1    
    72   35   36 2    
    73   37   38 2    
    74   37   39 am   BACKBONE|DICT|INTERRES
    75   39   40 1    
    76   39  105 1    
    77   40   41 1    
    78   40   42 1    
    79   40  106 1    
    80   41  107 1    
    81   41  108 1    
    82   41  109 1    
    83   42   43 2    
    84   42   44 am   BACKBONE|DICT|INTERRES
    85   44   45 1    
    86   44  110 1    
    87   45   46 1    
    88   45   47 1    
    89   45  111 1    
    90   46  112 1    
    91   46  113 1    
    92   46  114 1    
    93   47   48 2    
    94   47   49 am   BACKBONE|DICT|INTERRES
    95   49   50 1    
    96   49  115 1    
    97   50   51 1    
    98   50   52 1    
    99   50  116 1    
   100   51  117 1    
   101   51  118 1    
   102   51  119 1    
   103   52   53 2    
   104   52   54 am   BACKBONE|DICT|INTERRES
   105   54   55 1    
   106   54  120 1    
   107   55   56 1    
   108   55   57 1    
   109   55  121 1    
   110   56  122 1    
   111   56  123 1    
   112   56  124 1    
   113   57   58 2    
   114   57   59 am   BACKBONE|DICT|INTERRES
   115   59   60 1    
   116   59  125 1    
   117   60   61 1    
   118   60   62 1    
   119   60  126 1    
   120   61  127 1    
   121   61  128 1    
   122   61  129 1    
   123   62   63 2    
   124   62   64 am   BACKBONE|DICT|INTERRES
   125   64   65 1    
   126   64  130 1    
   127   65   66 1    
   128   65   69 1    
   129   65  131 1    
   130   66   67 am   BACKBONE|DICT|INTERRES
   131   66   68 2    
   132   67  132 1    
   133   67  133 1    
   134   69   70 1    
   135   69  134 1    
   136   69  135 1    
   137   70   71 1    
   138   71  136 1    
   139   71  137 1    
@<TRIPOS>SUBSTRUCTURE
     1 UNK         1 GROUP             0       ****    0 ROOT    
