@<TRIPOS>MOLECULE
3R137
137   139    1
SMALL
USER_CHARGES


@<TRIPOS>ATOM
      1 CA         26.5699   -6.1089    2.1594 C.3       0 UNK        -0.2020 
      2 C          26.8395   -4.6133    2.2302 C.2       0 UNK         0.4855 
      3 O          26.9734   -4.0650    3.3248 O.2       0 UNK        -0.5197 
      4 N          26.9148   -3.9491    1.0744 N.am      1 UNK        -0.4892 
      5 CA         27.1570   -2.5154    0.9297 C.3       1 UNK         0.0835 
      6 C6         28.6525   -2.1274    1.1352 C.3       12 UNK        -0.0855 
      7 S7         29.8278   -2.9648    0.0055 S.3       12 UNK        -0.2931 
      8 C8         30.0851   -1.6878   -1.2741 C.3       12 UNK         0.0378 
      9 C9         30.3123   -2.2959   -2.6527 C.ar      12 UNK        -0.0802 
     10 C10        31.4666   -1.9974   -3.3824 C.ar      12 UNK        -0.0944 
     11 C11        31.6638   -2.5408   -4.6570 C.ar      12 UNK        -0.0787 
     12 C12        30.6894   -3.3830   -5.2070 C.ar      12 UNK        -0.0862 
     13 C13        29.5280   -3.6844   -4.4885 C.ar      12 UNK        -0.0733 
     14 C14        29.3484   -3.1361   -3.2166 C.ar      12 UNK        -0.0832 
     15 C15        28.4834   -4.6422   -5.0434 C.3       12 UNK         0.0240 
     16 S16        26.9030   -3.8074   -5.4038 S.3       12 UNK        -0.2522 
     17 C17        26.9759   -3.5729   -7.2168 C.3       12 UNK        -0.0967 
     18 CA         26.7329   -2.1164   -7.6840 C.3       5 UNK         0.0660 
     19 N          25.4995   -1.5446   -7.1294 N.am      5 UNK        -0.4015 
     20 C          25.0029   -0.3221   -7.3597 C.2       4 UNK         0.4946 
     21 O          25.5677    0.5213   -8.0573 O.2       4 UNK        -0.5353 
     22 CA         23.6660    0.0500   -6.6903 C.3       4 UNK         0.0277 
     23 CB         22.4806   -0.2884   -7.6141 C.3       4 UNK        -0.1981 
     24 N          23.4689   -0.4914   -5.3356 N.am      4 UNK        -0.4209 
     25 C          23.3250   -1.7634   -4.9367 C.2       3 UNK         0.4942 
     26 O          23.3430   -2.7255   -5.7060 O.2       3 UNK        -0.5208 
     27 CA         23.2129   -1.9895   -3.4156 C.3       3 UNK         0.0250 
     28 CB         22.9311   -3.4600   -3.0554 C.3       3 UNK        -0.1990 
     29 N          24.4366   -1.5666   -2.7314 N.am      3 UNK        -0.4232 
     30 C          24.8063   -0.3052   -2.4870 C.2       2 UNK         0.4993 
     31 O          24.0884    0.6648   -2.7407 O.2       2 UNK        -0.5286 
     32 CA         26.2237   -0.0944   -1.9171 C.3       2 UNK         0.0209 
     33 CB         26.5843    1.3966   -1.7725 C.3       2 UNK        -0.1931 
     34 N          26.4747   -0.7592   -0.6340 N.am      2 UNK        -0.4546 
     35 C          26.6245   -2.0768   -0.4449 C.2       1 UNK         0.5154 
     36 O          26.4109   -2.9240   -1.3180 O.2       1 UNK        -0.5181 
     37 C          27.9814   -1.2357   -7.4882 C.2       5 UNK         0.5014 
     38 O          28.7599   -1.0882   -8.4301 O.2       5 UNK        -0.5248 
     39 N          28.1147   -0.6261   -6.3017 N.am      6 UNK        -0.4434 
     40 CA         29.1984    0.2943   -5.9487 C.3       6 UNK         0.0363 
     41 CB         29.0498    0.7219   -4.4820 C.3       6 UNK        -0.1936 
     42 C          29.2681    1.5362   -6.8522 C.2       6 UNK         0.5081 
     43 O          30.3673    1.9919   -7.1712 O.2       6 UNK        -0.5248 
     44 N          28.0990    2.0543   -7.2497 N.am      7 UNK        -0.4718 
     45 CA         27.9713    3.1875   -8.1623 C.3       7 UNK         0.0273 
     46 CB         26.6401    3.9120   -7.9043 C.3       7 UNK        -0.1935 
     47 C          28.0742    2.7356   -9.6244 C.2       7 UNK         0.5018 
     48 O          28.7693    3.3860  -10.4039 O.2       7 UNK        -0.5186 
     49 N          27.4024    1.6253   -9.9645 N.am      8 UNK        -0.4240 
     50 CA         27.3494    1.0568  -11.3145 C.3       8 UNK         0.0235 
     51 CB         26.3346   -0.0964  -11.3520 C.3       8 UNK        -0.2000 
     52 C          28.7184    0.5961  -11.8412 C.2       8 UNK         0.4941 
     53 O          29.0431    0.8778  -12.9953 O.2       8 UNK        -0.5273 
     54 N          29.5038   -0.0773  -10.9890 N.am      9 UNK        -0.4262 
     55 CA         30.8731   -0.5019  -11.2951 C.3       9 UNK         0.0264 
     56 CB         31.1899   -1.7839  -10.5081 C.3       9 UNK        -0.1955 
     57 C          31.9208    0.5906  -11.0076 C.2       9 UNK         0.5031 
     58 O          33.0815    0.4026  -11.3753 O.2       9 UNK        -0.5390 
     59 N          31.5049    1.6958  -10.3667 N.am      10 UNK        -0.4204 
     60 CA         32.3103    2.8482   -9.9428 C.3       10 UNK         0.0237 
     61 CB         32.7870    3.6587  -11.1667 C.3       10 UNK        -0.1985 
     62 C          33.4572    2.4394   -8.9986 C.2       10 UNK         0.4970 
     63 O          34.6207    2.7537   -9.2597 O.2       10 UNK        -0.4914 
     64 N          33.0949    1.7239   -7.9303 N.am      11 UNK        -0.4285 
     65 CA         34.0081    1.1467   -6.9340 C.3       11 UNK         0.1007 
     66 C          33.6512    1.5157   -5.4659 C.2       11 UNK         0.5703 
     67 N          32.5361    2.1846   -5.1953 N.am      11 UNK        -0.7361 
     68 O          34.4187    1.2136   -4.5552 O.2       11 UNK        -0.4986 
     69 C69        34.1827   -0.3810   -7.1507 C.3       12 UNK        -0.0947 
     70 S70        32.6287   -1.3213   -6.9559 S.3       12 UNK        -0.2240 
     71 C71        32.9474   -2.2389   -5.4184 C.3       12 UNK         0.0194 
     72 H72        26.4751   -6.4576    1.1311 H         1 UNK         0.0906 
     73 H73        27.3845   -6.6592    2.6296 H         1 UNK         0.0906 
     74 H74        25.6468   -6.3498    2.6859 H         1 UNK         0.0906 
     75 H75        26.7628   -4.4163    0.1877 H         1 UNK         0.3140 
     76 H76        26.5555   -1.9970    1.6802 H         1 UNK         0.1085 
     77 H77        28.7853   -1.0464    1.0646 H         1 UNK         0.0836 
     78 H78        28.9482   -2.3791    2.1548 H         1 UNK         0.0836 
     79 H79        29.2218   -1.0260   -1.3335 H         1 UNK         0.0731 
     80 H80        30.9283   -1.0620   -0.9780 H         1 UNK         0.0731 
     81 H81        32.2155   -1.3437   -2.9562 H         1 UNK         0.1312 
     82 H82        30.8439   -3.8086   -6.1891 H         1 UNK         0.1406 
     83 H83        28.4558   -3.3780   -2.6586 H         1 UNK         0.1631 
     84 H84        28.2956   -5.4172   -4.2989 H         1 UNK         0.0717 
     85 H85        28.8550   -5.1647   -5.9256 H         1 UNK         0.0717 
     86 H86        27.9216   -3.9464   -7.6144 H         1 UNK         0.0934 
     87 H87        26.2106   -4.2176   -7.6519 H         1 UNK         0.0934 
     88 H88        26.5698   -2.1609   -8.7615 H         1 UNK         0.0739 
     89 H89        24.9309   -2.1713   -6.5650 H         1 UNK         0.3093 
     90 H90        23.6817    1.1343   -6.5675 H         1 UNK         0.0818 
     91 H91        21.5361    0.0475   -7.1862 H         1 UNK         0.0819 
     92 H92        22.5906    0.2030   -8.5818 H         1 UNK         0.0819 
     93 H93        22.4012   -1.3592   -7.8037 H         1 UNK         0.0819 
     94 H94        23.5102    0.1978   -4.5887 H         1 UNK         0.3041 
     95 H95        22.3768   -1.3876   -3.0532 H         1 UNK         0.0784 
     96 H96        22.0169   -3.8123   -3.5349 H         1 UNK         0.0793 
     97 H97        23.7426   -4.1158   -3.3750 H         1 UNK         0.0793 
     98 H98        22.8028   -3.5870   -1.9803 H         1 UNK         0.0793 
     99 H99        25.0884   -2.2999   -2.4590 H         1 UNK         0.3024 
    100 H100       26.9068   -0.5269   -2.6510 H         1 UNK         0.1171 
    101 H101       27.6304    1.5279   -1.4948 H         1 UNK         0.0786 
    102 H102       26.4322    1.9343   -2.7094 H         1 UNK         0.0786 
    103 H103       25.9705    1.8873   -1.0161 H         1 UNK         0.0786 
    104 H104       26.6257   -0.1433    0.1523 H         1 UNK         0.2977 
    105 H105       27.4312   -0.8307   -5.5889 H         1 UNK         0.3127 
    106 H106       30.1367   -0.2501   -6.0534 H         1 UNK         0.0770 
    107 H107       28.1414    1.3025   -4.3228 H         1 UNK         0.0814 
    108 H108       29.8916    1.3408   -4.1699 H         1 UNK         0.0814 
    109 H109       29.0226   -0.1398   -3.8186 H         1 UNK         0.0814 
    110 H110       27.2446    1.5707   -7.0047 H         1 UNK         0.2983 
    111 H111       28.7827    3.8941   -7.9713 H         1 UNK         0.0947 
    112 H112       26.5316    4.7728   -8.5655 H         1 UNK         0.0806 
    113 H113       26.5834    4.2815   -6.8804 H         1 UNK         0.0806 
    114 H114       25.7812    3.2614   -8.0732 H         1 UNK         0.0806 
    115 H115       26.8307    1.1711   -9.2545 H         1 UNK         0.3000 
    116 H116       26.9900    1.8436  -11.9814 H         1 UNK         0.0850 
    117 H117       26.2255   -0.4866  -12.3648 H         1 UNK         0.0810 
    118 H118       25.3483    0.2298  -11.0210 H         1 UNK         0.0810 
    119 H119       26.6447   -0.9245  -10.7160 H         1 UNK         0.0810 
    120 H120       29.1554   -0.3117  -10.0593 H         1 UNK         0.3040 
    121 H121       30.9441   -0.7413  -12.3582 H         1 UNK         0.0766 
    122 H122       31.1450   -1.6142   -9.4333 H         1 UNK         0.0812 
    123 H123       32.1912   -2.1505  -10.7379 H         1 UNK         0.0812 
    124 H124       30.4876   -2.5818  -10.7490 H         1 UNK         0.0812 
    125 H125       30.5233    1.7497  -10.1316 H         1 UNK         0.3205 
    126 H126       31.6459    3.4899   -9.3616 H         1 UNK         0.0754 
    127 H127       33.3069    4.5656  -10.8558 H         1 UNK         0.0769 
    128 H128       31.9453    3.9648  -11.7883 H         1 UNK         0.0769 
    129 H129       33.4743    3.0867  -11.7909 H         1 UNK         0.0769 
    130 H130       32.1048    1.5658   -7.7623 H         1 UNK         0.2981 
    131 H131       34.9935    1.5932   -7.0765 H         1 UNK         0.0541 
    132 H132       31.8660    2.3930   -5.9253 H         1 UNK         0.3459 
    133 H133       32.3368    2.4343   -4.2406 H         1 UNK         0.3459 
    134 H134       34.9512   -0.7789   -6.4860 H         1 UNK         0.0612 
    135 H135       34.5519   -0.5627   -8.1611 H         1 UNK         0.0612 
    136 H136       33.4592   -3.1716   -5.6585 H         1 UNK         0.0624 
    137 H137       33.6284   -1.6661   -4.7871 H         1 UNK         0.0624 
@<TRIPOS>BOND
     1    1    2 1    
     2    1   72 1    
     3    1   73 1    
     4    1   74 1    
     5    2    3 2    
     6    2    4 am   BACKBONE|DICT|INTERRES
     7    4    5 1    
     8    4   75 1    
     9    5    6 1    
    10    5   35 1    
    11    5   76 1    
    12    6    7 1    
    13    6   77 1    
    14    6   78 1    
    15    7    8 1    
    16    8    9 1    
    17    8   79 1    
    18    8   80 1    
    19    9   10 ar   
    20    9   14 ar   
    21   10   11 ar   
    22   10   81 1    
    23   11   12 ar   
    24   11   71 1    
    25   12   13 ar   
    26   12   82 1    
    27   13   14 ar   
    28   13   15 1    
    29   14   83 1    
    30   15   16 1    
    31   15   84 1    
    32   15   85 1    
    33   16   17 1    
    34   17   18 1    
    35   17   86 1    
    36   17   87 1    
    37   18   19 1    
    38   18   37 1    
    39   18   88 1    
    40   19   20 am   BACKBONE|DICT|INTERRES
    41   19   89 1    
    42   20   21 2    
    43   20   22 1    
    44   22   23 1    
    45   22   24 1    
    46   22   90 1    
    47   23   91 1    
    48   23   92 1    
    49   23   93 1    
    50   24   25 am   BACKBONE|DICT|INTERRES
    51   24   94 1    
    52   25   26 2    
    53   25   27 1    
    54   27   28 1    
    55   27   29 1    
    56   27   95 1    
    57   28   96 1    
    58   28   97 1    
    59   28   98 1    
    60   29   30 am   BACKBONE|DICT|INTERRES
    61   29   99 1    
    62   30   31 2    
    63   30   32 1    
    64   32   33 1    
    65   32   34 1    
    66   32  100 1    
    67   33  101 1    
    68   33  102 1    
    69   33  103 1    
    70   34   35 am   BACKBONE|DICT|INTERRES
    71   34  104 1    
    72   35   36 2    
    73   37   38 2    
    74   37   39 am   BACKBONE|DICT|INTERRES
    75   39   40 1    
    76   39  105 1    
    77   40   41 1    
    78   40   42 1    
    79   40  106 1    
    80   41  107 1    
    81   41  108 1    
    82   41  109 1    
    83   42   43 2    
    84   42   44 am   BACKBONE|DICT|INTERRES
    85   44   45 1    
    86   44  110 1    
    87   45   46 1    
    88   45   47 1    
    89   45  111 1    
    90   46  112 1    
    91   46  113 1    
    92   46  114 1    
    93   47   48 2    
    94   47   49 am   BACKBONE|DICT|INTERRES
    95   49   50 1    
    96   49  115 1    
    97   50   51 1    
    98   50   52 1    
    99   50  116 1    
   100   51  117 1    
   101   51  118 1    
   102   51  119 1    
   103   52   53 2    
   104   52   54 am   BACKBONE|DICT|INTERRES
   105   54   55 1    
   106   54  120 1    
   107   55   56 1    
   108   55   57 1    
   109   55  121 1    
   110   56  122 1    
   111   56  123 1    
   112   56  124 1    
   113   57   58 2    
   114   57   59 am   BACKBONE|DICT|INTERRES
   115   59   60 1    
   116   59  125 1    
   117   60   61 1    
   118   60   62 1    
   119   60  126 1    
   120   61  127 1    
   121   61  128 1    
   122   61  129 1    
   123   62   63 2    
   124   62   64 am   BACKBONE|DICT|INTERRES
   125   64   65 1    
   126   64  130 1    
   127   65   66 1    
   128   65   69 1    
   129   65  131 1    
   130   66   67 am   BACKBONE|DICT|INTERRES
   131   66   68 2    
   132   67  132 1    
   133   67  133 1    
   134   69   70 1    
   135   69  134 1    
   136   69  135 1    
   137   70   71 1    
   138   71  136 1    
   139   71  137 1    
@<TRIPOS>SUBSTRUCTURE
     1 UNK         1 GROUP             0       ****    0 ROOT    
