@<TRIPOS>MOLECULE
3R137
137   139    1
SMALL
USER_CHARGES


@<TRIPOS>ATOM
      1 CA         28.1743   -2.9835    1.4114 C.3       0 UNK        -0.2020 
      2 C          27.1432   -4.0847    1.1878 C.2       0 UNK         0.4855 
      3 O          26.6220   -4.6260    2.1607 O.2       0 UNK        -0.5197 
      4 N          26.8040   -4.4527   -0.0542 N.am      1 UNK        -0.4892 
      5 CA         27.2869   -3.9056   -1.3287 C.3       1 UNK         0.0835 
      6 C6         28.1974   -4.9126   -2.0845 C.3       12 UNK        -0.0855 
      7 S7         29.8012   -5.1626   -1.2479 S.3       12 UNK        -0.2931 
      8 C8         31.0010   -4.5775   -2.5026 C.3       12 UNK         0.0378 
      9 C9         30.9426   -3.0855   -2.8429 C.ar      12 UNK        -0.0802 
     10 C10        31.4676   -2.6509   -4.0642 C.ar      12 UNK        -0.0944 
     11 C11        31.4588   -1.2946   -4.4089 C.ar      12 UNK        -0.0787 
     12 C12        30.8802   -0.3668   -3.5392 C.ar      12 UNK        -0.0862 
     13 C13        30.3398   -0.7848   -2.3209 C.ar      12 UNK        -0.0733 
     14 C14        30.4106   -2.1345   -1.9649 C.ar      12 UNK        -0.0832 
     15 C15        29.6721    0.2067   -1.3806 C.3       12 UNK         0.0240 
     16 S16        27.8726   -0.0700   -1.3322 S.3       12 UNK        -0.2522 
     17 C17        27.2157    1.2890   -2.3537 C.3       12 UNK        -0.0967 
     18 CA         27.5571    1.2175   -3.8653 C.3       5 UNK         0.0660 
     19 N          27.3150   -0.0966   -4.4657 N.am      5 UNK        -0.4015 
     20 C          27.7780   -0.4782   -5.6662 C.2       4 UNK         0.4946 
     21 O          28.4919    0.2228   -6.3835 O.2       4 UNK        -0.5353 
     22 CA         27.3380   -1.8595   -6.1764 C.3       4 UNK         0.0277 
     23 CB         28.2752   -2.9473   -5.6370 C.3       4 UNK        -0.1981 
     24 N          25.9498   -2.1706   -5.8244 N.am      4 UNK        -0.4209 
     25 C          24.8947   -1.5199   -6.3398 C.2       3 UNK         0.4942 
     26 O          24.9908   -0.6331   -7.1857 O.2       3 UNK        -0.5208 
     27 CA         23.4994   -1.8688   -5.7967 C.3       3 UNK         0.0250 
     28 CB         22.8587   -2.9818   -6.6403 C.3       3 UNK        -0.1990 
     29 N          23.4891   -2.2593   -4.3867 N.am      3 UNK        -0.4232 
     30 C          23.9535   -1.5261   -3.3653 C.2       2 UNK         0.4993 
     31 O          24.4526   -0.4061   -3.4942 O.2       2 UNK        -0.5286 
     32 CA         23.8891   -2.1691   -1.9683 C.3       2 UNK         0.0209 
     33 CB         22.8402   -3.2985   -1.8513 C.3       2 UNK        -0.1931 
     34 N          25.1946   -2.6560   -1.5041 N.am      2 UNK        -0.4546 
     35 C          26.0588   -3.4603   -2.1469 C.2       1 UNK         0.5154 
     36 O          25.8994   -3.8631   -3.3014 O.2       1 UNK        -0.5181 
     37 C          26.7883    2.3130   -4.6250 C.2       5 UNK         0.5014 
     38 O          27.3398    3.3885   -4.8600 O.2       5 UNK        -0.5248 
     39 N          25.5329    2.0129   -4.9935 N.am      6 UNK        -0.4434 
     40 CA         24.6600    2.8934   -5.7714 C.3       6 UNK         0.0363 
     41 CB         23.2353    2.3174   -5.7979 C.3       6 UNK        -0.1936 
     42 C          25.1794    3.1353   -7.1989 C.2       6 UNK         0.5081 
     43 O          25.1653    4.2774   -7.6591 O.2       6 UNK        -0.5248 
     44 N          25.6321    2.0660   -7.8693 N.am      7 UNK        -0.4718 
     45 CA         26.2167    2.1216   -9.2099 C.3       7 UNK         0.0273 
     46 CB         26.2905    0.7053   -9.8040 C.3       7 UNK        -0.1935 
     47 C          27.6064    2.7731   -9.2295 C.2       7 UNK         0.5018 
     48 O          27.9103    3.5005  -10.1759 O.2       7 UNK        -0.5186 
     49 N          28.4363    2.4669   -8.2192 N.am      8 UNK        -0.4240 
     50 CA         29.8375    2.8681   -8.0170 C.3       8 UNK         0.0235 
     51 CB         29.9886    4.3977   -7.9163 C.3       8 UNK        -0.2000 
     52 C          30.8129    2.2700   -9.0472 C.2       8 UNK         0.4941 
     53 O          31.8481    1.7321   -8.6563 O.2       8 UNK        -0.5273 
     54 N          30.4426    2.3102  -10.3343 N.am      9 UNK        -0.4262 
     55 CA         31.1643    1.7582  -11.4876 C.3       9 UNK         0.0264 
     56 CB         30.4285    2.1743  -12.7723 C.3       9 UNK        -0.1955 
     57 C          31.3751    0.2305  -11.4551 C.2       9 UNK         0.5031 
     58 O          32.1482   -0.2857  -12.2631 O.2       9 UNK        -0.5390 
     59 N          30.7095   -0.4641  -10.5211 N.am      10 UNK        -0.4204 
     60 CA         30.9601   -1.8612  -10.1637 C.3       10 UNK         0.0237 
     61 CB         29.8828   -2.3209   -9.1665 C.3       10 UNK        -0.1985 
     62 C          32.3701   -2.0880   -9.5811 C.2       10 UNK         0.4970 
     63 O          32.9179   -3.1777   -9.7507 O.2       10 UNK        -0.4914 
     64 N          32.9298   -1.0644   -8.9229 N.am      11 UNK        -0.4285 
     65 CA         34.3156   -1.0284   -8.4485 C.3       11 UNK         0.1007 
     66 C          35.2409   -0.4914   -9.5709 C.2       11 UNK         0.5703 
     67 N          36.3727   -1.1406   -9.8088 N.am      11 UNK        -0.7361 
     68 O          34.9635    0.5289  -10.1986 O.2       11 UNK        -0.4986 
     69 C69        34.4372   -0.1671   -7.1650 C.3       12 UNK        -0.0947 
     70 S70        33.8899   -1.0555   -5.6727 S.3       12 UNK        -0.2240 
     71 C71        32.0838   -0.8337   -5.7161 C.3       12 UNK         0.0194 
     72 H72        28.3209   -2.8104    2.4774 H         1 UNK         0.0906 
     73 H73        29.1379   -3.2653    0.9910 H         1 UNK         0.0906 
     74 H74        27.8490   -2.0431    0.9691 H         1 UNK         0.0906 
     75 H75        26.1008   -5.1722   -0.1546 H         1 UNK         0.3140 
     76 H76        27.8542   -2.9922   -1.1702 H         1 UNK         0.1085 
     77 H77        28.3923   -4.5816   -3.1036 H         1 UNK         0.0836 
     78 H78        27.7001   -5.8794   -2.1796 H         1 UNK         0.0836 
     79 H79        30.8595   -5.1674   -3.4097 H         1 UNK         0.0731 
     80 H80        32.0059   -4.8040   -2.1442 H         1 UNK         0.0731 
     81 H81        31.9072   -3.3671   -4.7452 H         1 UNK         0.1312 
     82 H82        30.8555    0.6792   -3.8107 H         1 UNK         0.1406 
     83 H83        30.0339   -2.4374   -1.0008 H         1 UNK         0.1631 
     84 H84        29.8915    1.2361   -1.6677 H         1 UNK         0.0717 
     85 H85        30.0760    0.0760   -0.3757 H         1 UNK         0.0717 
     86 H86        26.1337    1.2881   -2.2065 H         1 UNK         0.0934 
     87 H87        27.5680    2.2331   -1.9335 H         1 UNK         0.0934 
     88 H88        28.6197    1.4366   -3.9787 H         1 UNK         0.0739 
     89 H89        26.6829   -0.7032   -3.9623 H         1 UNK         0.3093 
     90 H90        27.4118   -1.8551   -7.2660 H         1 UNK         0.0818 
     91 H91        28.3533   -2.8958   -4.5520 H         1 UNK         0.0819 
     92 H92        27.9374   -3.9470   -5.9100 H         1 UNK         0.0819 
     93 H93        29.2816   -2.8222   -6.0372 H         1 UNK         0.0819 
     94 H94        25.7969   -2.8689   -5.1024 H         1 UNK         0.3041 
     95 H95        22.8808   -0.9744   -5.8872 H         1 UNK         0.0784 
     96 H96        22.8336   -2.7055   -7.6955 H         1 UNK         0.0793 
     97 H97        23.4127   -3.9182   -6.5615 H         1 UNK         0.0793 
     98 H98        21.8301   -3.1718   -6.3331 H         1 UNK         0.0793 
     99 H99        23.1377   -3.1825   -4.1779 H         1 UNK         0.3024 
    100 H100       23.5903   -1.3691   -1.2885 H         1 UNK         0.1171 
    101 H101       22.7254   -3.6139   -0.8141 H         1 UNK         0.0786 
    102 H102       21.8583   -2.9651   -2.1906 H         1 UNK         0.0786 
    103 H103       23.1136   -4.1817   -2.4299 H         1 UNK         0.0786 
    104 H104       25.4451   -2.3693   -0.5682 H         1 UNK         0.2977 
    105 H105       25.1476    1.1192   -4.7038 H         1 UNK         0.3127 
    106 H106       24.6262    3.8586   -5.2615 H         1 UNK         0.0770 
    107 H107       23.1953    1.3636   -6.3236 H         1 UNK         0.0814 
    108 H108       22.5519    2.9974   -6.3080 H         1 UNK         0.0814 
    109 H109       22.8486    2.1628   -4.7904 H         1 UNK         0.0814 
    110 H110       25.5359    1.1421   -7.4525 H         1 UNK         0.2983 
    111 H111       25.5605    2.7232   -9.8430 H         1 UNK         0.0947 
    112 H112       26.7135    0.7224  -10.8094 H         1 UNK         0.0806 
    113 H113       25.3000    0.2559   -9.8773 H         1 UNK         0.0806 
    114 H114       26.9113    0.0440   -9.1977 H         1 UNK         0.0806 
    115 H115       28.1060    1.7951   -7.5312 H         1 UNK         0.3000 
    116 H116       30.1173    2.4502   -7.0482 H         1 UNK         0.0850 
    117 H117       31.0132    4.6693   -7.6592 H         1 UNK         0.0810 
    118 H118       29.3399    4.8059   -7.1409 H         1 UNK         0.0810 
    119 H119       29.7470    4.8987   -8.8539 H         1 UNK         0.0810 
    120 H120       29.5606    2.7800  -10.5315 H         1 UNK         0.3040 
    121 H121       32.1576    2.2117  -11.4957 H         1 UNK         0.0766 
    122 H122       30.9532    1.8169  -13.6595 H         1 UNK         0.0812 
    123 H123       30.3580    3.2590  -12.8559 H         1 UNK         0.0812 
    124 H124       29.4165    1.7686  -12.8052 H         1 UNK         0.0812 
    125 H125       30.0874    0.0521   -9.9175 H         1 UNK         0.3205 
    126 H126       30.8756   -2.4630  -11.0709 H         1 UNK         0.0754 
    127 H127       29.8852   -1.7123   -8.2613 H         1 UNK         0.0769 
    128 H128       30.0437   -3.3569   -8.8646 H         1 UNK         0.0769 
    129 H129       28.8862   -2.2637   -9.6047 H         1 UNK         0.0769 
    130 H130       32.4415   -0.1755   -8.8782 H         1 UNK         0.2981 
    131 H131       34.6358   -2.0441   -8.2065 H         1 UNK         0.0541 
    132 H132       36.6168   -1.9710   -9.2916 H         1 UNK         0.3459 
    133 H133       36.9933   -0.7958  -10.5244 H         1 UNK         0.3459 
    134 H134       33.8952    0.7751   -7.2582 H         1 UNK         0.0612 
    135 H135       35.4790    0.1062   -6.9863 H         1 UNK         0.0612 
    136 H136       31.6609   -1.4145   -6.5353 H         1 UNK         0.0624 
    137 H137       31.8460    0.2125   -5.9161 H         1 UNK         0.0624 
@<TRIPOS>BOND
     1    1    2 1    
     2    1   72 1    
     3    1   73 1    
     4    1   74 1    
     5    2    3 2    
     6    2    4 am   BACKBONE|DICT|INTERRES
     7    4    5 1    
     8    4   75 1    
     9    5    6 1    
    10    5   35 1    
    11    5   76 1    
    12    6    7 1    
    13    6   77 1    
    14    6   78 1    
    15    7    8 1    
    16    8    9 1    
    17    8   79 1    
    18    8   80 1    
    19    9   10 ar   
    20    9   14 ar   
    21   10   11 ar   
    22   10   81 1    
    23   11   12 ar   
    24   11   71 1    
    25   12   13 ar   
    26   12   82 1    
    27   13   14 ar   
    28   13   15 1    
    29   14   83 1    
    30   15   16 1    
    31   15   84 1    
    32   15   85 1    
    33   16   17 1    
    34   17   18 1    
    35   17   86 1    
    36   17   87 1    
    37   18   19 1    
    38   18   37 1    
    39   18   88 1    
    40   19   20 am   BACKBONE|DICT|INTERRES
    41   19   89 1    
    42   20   21 2    
    43   20   22 1    
    44   22   23 1    
    45   22   24 1    
    46   22   90 1    
    47   23   91 1    
    48   23   92 1    
    49   23   93 1    
    50   24   25 am   BACKBONE|DICT|INTERRES
    51   24   94 1    
    52   25   26 2    
    53   25   27 1    
    54   27   28 1    
    55   27   29 1    
    56   27   95 1    
    57   28   96 1    
    58   28   97 1    
    59   28   98 1    
    60   29   30 am   BACKBONE|DICT|INTERRES
    61   29   99 1    
    62   30   31 2    
    63   30   32 1    
    64   32   33 1    
    65   32   34 1    
    66   32  100 1    
    67   33  101 1    
    68   33  102 1    
    69   33  103 1    
    70   34   35 am   BACKBONE|DICT|INTERRES
    71   34  104 1    
    72   35   36 2    
    73   37   38 2    
    74   37   39 am   BACKBONE|DICT|INTERRES
    75   39   40 1    
    76   39  105 1    
    77   40   41 1    
    78   40   42 1    
    79   40  106 1    
    80   41  107 1    
    81   41  108 1    
    82   41  109 1    
    83   42   43 2    
    84   42   44 am   BACKBONE|DICT|INTERRES
    85   44   45 1    
    86   44  110 1    
    87   45   46 1    
    88   45   47 1    
    89   45  111 1    
    90   46  112 1    
    91   46  113 1    
    92   46  114 1    
    93   47   48 2    
    94   47   49 am   BACKBONE|DICT|INTERRES
    95   49   50 1    
    96   49  115 1    
    97   50   51 1    
    98   50   52 1    
    99   50  116 1    
   100   51  117 1    
   101   51  118 1    
   102   51  119 1    
   103   52   53 2    
   104   52   54 am   BACKBONE|DICT|INTERRES
   105   54   55 1    
   106   54  120 1    
   107   55   56 1    
   108   55   57 1    
   109   55  121 1    
   110   56  122 1    
   111   56  123 1    
   112   56  124 1    
   113   57   58 2    
   114   57   59 am   BACKBONE|DICT|INTERRES
   115   59   60 1    
   116   59  125 1    
   117   60   61 1    
   118   60   62 1    
   119   60  126 1    
   120   61  127 1    
   121   61  128 1    
   122   61  129 1    
   123   62   63 2    
   124   62   64 am   BACKBONE|DICT|INTERRES
   125   64   65 1    
   126   64  130 1    
   127   65   66 1    
   128   65   69 1    
   129   65  131 1    
   130   66   67 am   BACKBONE|DICT|INTERRES
   131   66   68 2    
   132   67  132 1    
   133   67  133 1    
   134   69   70 1    
   135   69  134 1    
   136   69  135 1    
   137   70   71 1    
   138   71  136 1    
   139   71  137 1    
@<TRIPOS>SUBSTRUCTURE
     1 UNK         1 GROUP             0       ****    0 ROOT    
