@<TRIPOS>MOLECULE
3R137
137   139    1
SMALL
USER_CHARGES


@<TRIPOS>ATOM
      1 CA         24.5394   -3.5131   -3.0593 C.3       0 UNK        -0.2020 
      2 C          25.8244   -2.7881   -2.6929 C.2       0 UNK         0.4855 
      3 O          26.3115   -1.9738   -3.4802 O.2       0 UNK        -0.5197 
      4 N          26.3511   -3.0675   -1.4916 N.am      1 UNK        -0.4892 
      5 CA         27.6422   -2.5997   -0.9503 C.3       1 UNK         0.0835 
      6 C6         28.8601   -3.1948   -1.7062 C.3       12 UNK        -0.0855 
      7 S7         28.8538   -5.0202   -1.6763 S.3       12 UNK        -0.2931 
      8 C8         30.5650   -5.3887   -2.1823 C.3       12 UNK         0.0378 
      9 C9         30.9069   -4.7976   -3.5437 C.ar      12 UNK        -0.0802 
     10 C10        32.0112   -3.9522   -3.6858 C.ar      12 UNK        -0.0944 
     11 C11        32.3340   -3.4079   -4.9320 C.ar      12 UNK        -0.0787 
     12 C12        31.5279   -3.7062   -6.0349 C.ar      12 UNK        -0.0862 
     13 C13        30.4159   -4.5474   -5.9131 C.ar      12 UNK        -0.0733 
     14 C14        30.1265   -5.1054   -4.6626 C.ar      12 UNK        -0.0832 
     15 C15        29.5934   -4.8633   -7.1647 C.3       12 UNK         0.0240 
     16 S16        27.8805   -5.4521   -6.8937 S.3       12 UNK        -0.2522 
     17 C17        27.0699   -4.0698   -6.0191 C.3       12 UNK        -0.0967 
     18 CA         26.6935   -2.8831   -6.9491 C.3       5 UNK         0.0660 
     19 N          25.3783   -2.3055   -6.6424 N.am      5 UNK        -0.4015 
     20 C          24.7492   -1.4142   -7.4239 C.2       4 UNK         0.4946 
     21 O          25.2016   -0.9955   -8.4892 O.2       4 UNK        -0.5353 
     22 CA         23.3901   -0.8793   -6.9424 C.3       4 UNK         0.0277 
     23 CB         22.2713   -1.8773   -7.2828 C.3       4 UNK        -0.1981 
     24 N          23.3097   -0.5214   -5.5218 N.am      4 UNK        -0.4209 
     25 C          24.1369    0.3039   -4.8642 C.2       3 UNK         0.4942 
     26 O          25.1760    0.7583   -5.3420 O.2       3 UNK        -0.5208 
     27 CA         23.7354    0.7205   -3.4420 C.3       3 UNK         0.0250 
     28 CB         22.5439   -0.0601   -2.8432 C.3       3 UNK        -0.1990 
     29 N          24.8997    0.6067   -2.5702 N.am      3 UNK        -0.4232 
     30 C          25.1547    1.3894   -1.5134 C.2       2 UNK         0.4993 
     31 O          24.4312    2.3249   -1.1667 O.2       2 UNK        -0.5286 
     32 CA         26.4032    1.0400   -0.6859 C.3       2 UNK         0.0209 
     33 CB         26.3496    1.5872    0.7540 C.3       2 UNK        -0.1931 
     34 N          26.5731   -0.4116   -0.6548 N.am      2 UNK        -0.4546 
     35 C          27.7311   -1.0623   -0.8038 C.2       1 UNK         0.5154 
     36 O          28.8254   -0.4968   -0.8297 O.2       1 UNK        -0.5181 
     37 C          27.7775   -1.7937   -6.9280 C.2       5 UNK         0.5014 
     38 O          28.4980   -1.6254   -7.9137 O.2       5 UNK        -0.5248 
     39 N          27.8354   -1.0487   -5.8153 N.am      6 UNK        -0.4434 
     40 CA         28.7677    0.0558   -5.6125 C.3       6 UNK         0.0363 
     41 CB         28.6389    0.5933   -4.1816 C.3       6 UNK        -0.1936 
     42 C          28.6090    1.1826   -6.6413 C.2       6 UNK         0.5081 
     43 O          29.6188    1.6857   -7.1323 O.2       6 UNK        -0.5248 
     44 N          27.3590    1.5289   -6.9734 N.am      7 UNK        -0.4718 
     45 CA         27.0095    2.5121   -7.9983 C.3       7 UNK         0.0273 
     46 CB         25.4996    2.7951   -7.9479 C.3       7 UNK        -0.1935 
     47 C          27.4371    2.0829   -9.4109 C.2       7 UNK         0.5018 
     48 O          27.9995    2.9016  -10.1386 O.2       7 UNK        -0.5186 
     49 N          27.1807    0.8159   -9.7701 N.am      8 UNK        -0.4240 
     50 CA         27.5467    0.2401  -11.0669 C.3       8 UNK         0.0235 
     51 CB         26.8450   -1.1147  -11.2548 C.3       8 UNK        -0.2000 
     52 C          29.0647    0.0889  -11.2480 C.2       8 UNK         0.4941 
     53 O          29.5812    0.4188  -12.3164 O.2       8 UNK        -0.5273 
     54 N          29.7498   -0.4065  -10.2091 N.am      9 UNK        -0.4262 
     55 CA         31.1952   -0.6435  -10.2182 C.3       9 UNK         0.0264 
     56 CB         31.5294   -1.6798   -9.1367 C.3       9 UNK        -0.1955 
     57 C          32.0406    0.6232  -10.0031 C.2       9 UNK         0.5031 
     58 O          33.2379    0.5846  -10.2901 O.2       9 UNK        -0.5390 
     59 N          31.4283    1.6910   -9.4681 N.am      10 UNK        -0.4204 
     60 CA         32.0648    2.9080   -8.9467 C.3       10 UNK         0.0237 
     61 CB         32.7685    3.7091  -10.0635 C.3       10 UNK        -0.1985 
     62 C          32.9773    2.5859   -7.7454 C.2       10 UNK         0.4970 
     63 O          34.1236    3.0352   -7.6908 O.2       10 UNK        -0.4914 
     64 N          32.4408    1.7845   -6.8159 N.am      11 UNK        -0.4285 
     65 CA         33.1153    1.3261   -5.5919 C.3       11 UNK         0.1007 
     66 C          33.2579    2.4273   -4.4989 C.2       11 UNK         0.5703 
     67 N          32.4825    3.5053   -4.5425 N.am      11 UNK        -0.7361 
     68 O          34.0971    2.3138   -3.6091 O.2       11 UNK        -0.4986 
     69 C69        32.4360    0.0410   -5.0415 C.3       12 UNK        -0.0947 
     70 S70        33.5601   -1.0346   -4.0918 S.3       12 UNK        -0.2240 
     71 C71        33.5882   -2.5542   -5.0984 C.3       12 UNK         0.0194 
     72 H72        23.9082   -3.6654   -2.1840 H         1 UNK         0.0906 
     73 H73        23.9668   -2.9437   -3.7893 H         1 UNK         0.0906 
     74 H74        24.7683   -4.4873   -3.4901 H         1 UNK         0.0906 
     75 H75        25.8762   -3.7409   -0.9056 H         1 UNK         0.3140 
     76 H76        27.6879   -2.9736    0.0740 H         1 UNK         0.1085 
     77 H77        28.8735   -2.8548   -2.7438 H         1 UNK         0.0836 
     78 H78        29.7971   -2.8562   -1.2595 H         1 UNK         0.0836 
     79 H79        31.2467   -5.0209   -1.4137 H         1 UNK         0.0731 
     80 H80        30.6982   -6.4706   -2.2213 H         1 UNK         0.0731 
     81 H81        32.6317   -3.7246   -2.8297 H         1 UNK         0.1312 
     82 H82        31.7853   -3.3045   -7.0025 H         1 UNK         0.1406 
     83 H83        29.2867   -5.7758   -4.5453 H         1 UNK         0.1631 
     84 H84        30.1238   -5.6341   -7.7249 H         1 UNK         0.0717 
     85 H85        29.5600   -3.9927   -7.8182 H         1 UNK         0.0717 
     86 H86        26.1664   -4.4964   -5.5823 H         1 UNK         0.0934 
     87 H87        27.6750   -3.7625   -5.1635 H         1 UNK         0.0934 
     88 H88        26.6287   -3.2524   -7.9753 H         1 UNK         0.0739 
     89 H89        24.9637   -2.5504   -5.7571 H         1 UNK         0.3093 
     90 H90        23.1989    0.0380   -7.5031 H         1 UNK         0.0818 
     91 H91        21.2863   -1.4529   -7.0875 H         1 UNK         0.0819 
     92 H92        22.2983   -2.1492   -8.3393 H         1 UNK         0.0819 
     93 H93        22.3607   -2.7992   -6.7070 H         1 UNK         0.0819 
     94 H94        22.4845   -0.8369   -5.0331 H         1 UNK         0.3041 
     95 H95        23.4501    1.7721   -3.5154 H         1 UNK         0.0784 
     96 H96        21.6419    0.0597   -3.4445 H         1 UNK         0.0793 
     97 H97        22.7538   -1.1256   -2.7537 H         1 UNK         0.0793 
     98 H98        22.3010    0.3073   -1.8458 H         1 UNK         0.0793 
     99 H99        25.5733   -0.1039   -2.8395 H         1 UNK         0.3024 
    100 H100       27.2489    1.5021   -1.2010 H         1 UNK         0.1171 
    101 H101       26.2663    2.6748    0.7586 H         1 UNK         0.0786 
    102 H102       27.2533    1.3316    1.3076 H         1 UNK         0.0786 
    103 H103       25.4956    1.1894    1.3032 H         1 UNK         0.0786 
    104 H104       25.7229   -0.9586   -0.6374 H         1 UNK         0.2977 
    105 H105       27.1981   -1.2580   -5.0507 H         1 UNK         0.3127 
    106 H106       29.7656   -0.3601   -5.7387 H         1 UNK         0.0770 
    107 H107       27.6279    0.9425   -3.9700 H         1 UNK         0.0814 
    108 H108       29.3184    1.4294   -4.0110 H         1 UNK         0.0814 
    109 H109       28.8886   -0.1800   -3.4569 H         1 UNK         0.0814 
    110 H110       26.5860    1.0940   -6.4710 H         1 UNK         0.2983 
    111 H111       27.5382    3.4380   -7.7612 H         1 UNK         0.0947 
    112 H112       25.2155    3.5403   -8.6921 H         1 UNK         0.0806 
    113 H113       25.2019    3.1798   -6.9723 H         1 UNK         0.0806 
    114 H114       24.9143    1.8959   -8.1435 H         1 UNK         0.0806 
    115 H115       26.6837    0.2077   -9.1248 H         1 UNK         0.3000 
    116 H116       27.1876    0.9164  -11.8458 H         1 UNK         0.0850 
    117 H117       27.1062   -1.5626  -12.2144 H         1 UNK         0.0810 
    118 H118       25.7607   -1.0041  -11.2332 H         1 UNK         0.0810 
    119 H119       27.1227   -1.8245  -10.4742 H         1 UNK         0.0810 
    120 H120       29.2409   -0.7026   -9.3767 H         1 UNK         0.3040 
    121 H121       31.4744   -1.0624  -11.1874 H         1 UNK         0.0766 
    122 H122       32.5965   -1.9059   -9.1218 H         1 UNK         0.0812 
    123 H123       31.0005   -2.6163   -9.3125 H         1 UNK         0.0812 
    124 H124       31.2554   -1.3171   -8.1452 H         1 UNK         0.0812 
    125 H125       30.4492    1.5898   -9.2289 H         1 UNK         0.3205 
    126 H126       31.2567    3.5302   -8.5589 H         1 UNK         0.0754 
    127 H127       33.1203    4.6706   -9.6877 H         1 UNK         0.0769 
    128 H128       32.0893    3.9132  -10.8913 H         1 UNK         0.0769 
    129 H129       33.6356    3.1824  -10.4626 H         1 UNK         0.0769 
    130 H130       31.4584    1.5414   -6.9151 H         1 UNK         0.2981 
    131 H131       34.1317    1.0599   -5.8887 H         1 UNK         0.0541 
    132 H132       31.7944    3.6122   -5.2700 H         1 UNK         0.3459 
    133 H133       32.5884    4.2173   -3.8374 H         1 UNK         0.3459 
    134 H134       32.0391   -0.5502   -5.8672 H         1 UNK         0.0612 
    135 H135       31.5825    0.2888   -4.4095 H         1 UNK         0.0612 
    136 H136       33.7510   -2.2894   -6.1445 H         1 UNK         0.0624 
    137 H137       34.4521   -3.1486   -4.7984 H         1 UNK         0.0624 
@<TRIPOS>BOND
     1    1    2 1    
     2    1   72 1    
     3    1   73 1    
     4    1   74 1    
     5    2    3 2    
     6    2    4 am   BACKBONE|DICT|INTERRES
     7    4    5 1    
     8    4   75 1    
     9    5    6 1    
    10    5   35 1    
    11    5   76 1    
    12    6    7 1    
    13    6   77 1    
    14    6   78 1    
    15    7    8 1    
    16    8    9 1    
    17    8   79 1    
    18    8   80 1    
    19    9   10 ar   
    20    9   14 ar   
    21   10   11 ar   
    22   10   81 1    
    23   11   12 ar   
    24   11   71 1    
    25   12   13 ar   
    26   12   82 1    
    27   13   14 ar   
    28   13   15 1    
    29   14   83 1    
    30   15   16 1    
    31   15   84 1    
    32   15   85 1    
    33   16   17 1    
    34   17   18 1    
    35   17   86 1    
    36   17   87 1    
    37   18   19 1    
    38   18   37 1    
    39   18   88 1    
    40   19   20 am   BACKBONE|DICT|INTERRES
    41   19   89 1    
    42   20   21 2    
    43   20   22 1    
    44   22   23 1    
    45   22   24 1    
    46   22   90 1    
    47   23   91 1    
    48   23   92 1    
    49   23   93 1    
    50   24   25 am   BACKBONE|DICT|INTERRES
    51   24   94 1    
    52   25   26 2    
    53   25   27 1    
    54   27   28 1    
    55   27   29 1    
    56   27   95 1    
    57   28   96 1    
    58   28   97 1    
    59   28   98 1    
    60   29   30 am   BACKBONE|DICT|INTERRES
    61   29   99 1    
    62   30   31 2    
    63   30   32 1    
    64   32   33 1    
    65   32   34 1    
    66   32  100 1    
    67   33  101 1    
    68   33  102 1    
    69   33  103 1    
    70   34   35 am   BACKBONE|DICT|INTERRES
    71   34  104 1    
    72   35   36 2    
    73   37   38 2    
    74   37   39 am   BACKBONE|DICT|INTERRES
    75   39   40 1    
    76   39  105 1    
    77   40   41 1    
    78   40   42 1    
    79   40  106 1    
    80   41  107 1    
    81   41  108 1    
    82   41  109 1    
    83   42   43 2    
    84   42   44 am   BACKBONE|DICT|INTERRES
    85   44   45 1    
    86   44  110 1    
    87   45   46 1    
    88   45   47 1    
    89   45  111 1    
    90   46  112 1    
    91   46  113 1    
    92   46  114 1    
    93   47   48 2    
    94   47   49 am   BACKBONE|DICT|INTERRES
    95   49   50 1    
    96   49  115 1    
    97   50   51 1    
    98   50   52 1    
    99   50  116 1    
   100   51  117 1    
   101   51  118 1    
   102   51  119 1    
   103   52   53 2    
   104   52   54 am   BACKBONE|DICT|INTERRES
   105   54   55 1    
   106   54  120 1    
   107   55   56 1    
   108   55   57 1    
   109   55  121 1    
   110   56  122 1    
   111   56  123 1    
   112   56  124 1    
   113   57   58 2    
   114   57   59 am   BACKBONE|DICT|INTERRES
   115   59   60 1    
   116   59  125 1    
   117   60   61 1    
   118   60   62 1    
   119   60  126 1    
   120   61  127 1    
   121   61  128 1    
   122   61  129 1    
   123   62   63 2    
   124   62   64 am   BACKBONE|DICT|INTERRES
   125   64   65 1    
   126   64  130 1    
   127   65   66 1    
   128   65   69 1    
   129   65  131 1    
   130   66   67 am   BACKBONE|DICT|INTERRES
   131   66   68 2    
   132   67  132 1    
   133   67  133 1    
   134   69   70 1    
   135   69  134 1    
   136   69  135 1    
   137   70   71 1    
   138   71  136 1    
   139   71  137 1    
@<TRIPOS>SUBSTRUCTURE
     1 UNK         1 GROUP             0       ****    0 ROOT    
