@<TRIPOS>MOLECULE
3R137
137   139    1
SMALL
USER_CHARGES


@<TRIPOS>ATOM
      1 CA         27.6509   -6.1461   -6.4342 C.3       0 UNK        -0.2020 
      2 C          27.3588   -5.5099   -5.0843 C.2       0 UNK         0.4855 
      3 O          26.1922   -5.3167   -4.7394 O.2       0 UNK        -0.5197 
      4 N          28.4084   -5.1833   -4.3172 N.am      1 UNK        -0.4892 
      5 CA         28.3087   -4.5819   -2.9831 C.3       1 UNK         0.0835 
      6 C6         29.6787   -4.5665   -2.2591 C.3       12 UNK        -0.0855 
      7 S7         29.5089   -4.2414   -0.4660 S.3       12 UNK        -0.2931 
      8 C8         31.1375   -3.5603   -0.0084 C.3       12 UNK         0.0378 
      9 C9         31.5200   -2.3254   -0.8149 C.ar      12 UNK        -0.0802 
     10 C10        32.6084   -2.3819   -1.6896 C.ar      12 UNK        -0.0944 
     11 C11        32.9628   -1.2680   -2.4533 C.ar      12 UNK        -0.0787 
     12 C12        32.2435   -0.0790   -2.3113 C.ar      12 UNK        -0.0862 
     13 C13        31.1480   -0.0055   -1.4448 C.ar      12 UNK        -0.0733 
     14 C14        30.7940   -1.1340   -0.6944 C.ar      12 UNK        -0.0832 
     15 C15        30.3572    1.2937   -1.3058 C.3       12 UNK         0.0240 
     16 S16        29.9329    2.0681   -2.9068 S.3       12 UNK        -0.2522 
     17 C17        28.7142    0.8839   -3.5580 C.3       12 UNK        -0.0967 
     18 CA         28.3860    1.0995   -5.0576 C.3       5 UNK         0.0660 
     19 N          27.8324   -0.1156   -5.6612 N.am      5 UNK        -0.4015 
     20 C          27.5300   -0.2744   -6.9579 C.2       4 UNK         0.4946 
     21 O          27.7720    0.5596   -7.8304 O.2       4 UNK        -0.5353 
     22 CA         26.7835   -1.5625   -7.3418 C.3       4 UNK         0.0277 
     23 CB         27.7546   -2.7173   -7.6167 C.3       4 UNK        -0.1981 
     24 N          25.8126   -1.9686   -6.3237 N.am      4 UNK        -0.4209 
     25 C          24.6747   -1.3089   -6.0673 C.2       3 UNK         0.4942 
     26 O          24.3008   -0.3166   -6.6917 O.2       3 UNK        -0.5208 
     27 CA         23.8397   -1.8178   -4.8819 C.3       3 UNK         0.0250 
     28 CB         23.0671   -3.0914   -5.2611 C.3       3 UNK        -0.1990 
     29 N          24.6568   -2.0694   -3.6921 N.am      3 UNK        -0.4232 
     30 C          25.3146   -1.1175   -3.0143 C.2       2 UNK         0.4993 
     31 O          25.2797    0.0768   -3.3034 O.2       2 UNK        -0.5286 
     32 CA         26.1950   -1.5680   -1.8390 C.3       2 UNK         0.0209 
     33 CB         25.3795   -1.6005   -0.5372 C.3       2 UNK        -0.1931 
     34 N          26.8476   -2.8630   -2.0385 N.am      2 UNK        -0.4546 
     35 C          27.6776   -3.1751   -3.0438 C.2       1 UNK         0.5154 
     36 O          27.9520   -2.4142   -3.9767 O.2       1 UNK        -0.5181 
     37 C          27.4616    2.3175   -5.2839 C.2       5 UNK         0.5014 
     38 O          27.9197    3.3388   -5.7980 O.2       5 UNK        -0.5248 
     39 N          26.1683    2.1725   -4.9530 N.am      6 UNK        -0.4434 
     40 CA         25.1266    3.1852   -5.1593 C.3       6 UNK         0.0363 
     41 CB         23.8222    2.7260   -4.4892 C.3       6 UNK        -0.1936 
     42 C          24.8785    3.5216   -6.6400 C.2       6 UNK         0.5081 
     43 O          24.6015    4.6784   -6.9572 O.2       6 UNK        -0.5248 
     44 N          25.0122    2.5220   -7.5224 N.am      7 UNK        -0.4718 
     45 CA         24.9468    2.6769   -8.9794 C.3       7 UNK         0.0273 
     46 CB         24.6962    1.3003   -9.6176 C.3       7 UNK        -0.1935 
     47 C          26.1988    3.3357   -9.5948 C.2       7 UNK         0.5018 
     48 O          26.1801    3.6334  -10.7900 O.2       7 UNK        -0.5186 
     49 N          27.2543    3.5388   -8.7903 N.am      8 UNK        -0.4240 
     50 CA         28.5679    4.0823   -9.1526 C.3       8 UNK         0.0235 
     51 CB         28.4577    5.5445   -9.6366 C.3       8 UNK        -0.2000 
     52 C          29.3537    3.1771  -10.1216 C.2       8 UNK         0.4941 
     53 O          30.1308    3.6788  -10.9373 O.2       8 UNK        -0.5273 
     54 N          29.1578    1.8584   -9.9999 N.am      9 UNK        -0.4262 
     55 CA         29.9560    0.8301  -10.6644 C.3       9 UNK         0.0264 
     56 CB         29.0519   -0.3841  -10.9414 C.3       9 UNK        -0.1955 
     57 C          31.1493    0.4473   -9.7722 C.2       9 UNK         0.5031 
     58 O          31.2333    0.8894   -8.6224 O.2       9 UNK        -0.5390 
     59 N          32.0417   -0.4084  -10.2882 N.am      10 UNK        -0.4204 
     60 CA         33.2338   -0.9258   -9.5970 C.3       10 UNK         0.0237 
     61 CB         34.2227   -1.4615  -10.6505 C.3       10 UNK        -0.1985 
     62 C          32.9199   -1.9657   -8.4927 C.2       10 UNK         0.4970 
     63 O          33.6046   -2.9861   -8.4033 O.2       10 UNK        -0.4914 
     64 N          31.8951   -1.6694   -7.6841 N.am      11 UNK        -0.4285 
     65 CA         31.3345   -2.4339   -6.5630 C.3       11 UNK         0.1007 
     66 C          31.1705   -3.9675   -6.7964 C.2       11 UNK         0.5703 
     67 N          31.4151   -4.8110   -5.8004 N.am      11 UNK        -0.7361 
     68 O          30.7471   -4.3953   -7.8677 O.2       11 UNK        -0.4986 
     69 C69        31.9141   -1.9901   -5.1950 C.3       12 UNK        -0.0947 
     70 S70        33.6432   -2.4788   -4.8622 S.3       12 UNK        -0.2240 
     71 C71        34.0801   -1.3661   -3.4830 C.3       12 UNK         0.0194 
     72 H72        26.9490   -5.7840   -7.1845 H         1 UNK         0.0906 
     73 H73        28.6594   -5.9210   -6.7795 H         1 UNK         0.0906 
     74 H74        27.5443   -7.2284   -6.3677 H         1 UNK         0.0906 
     75 H75        29.3447   -5.3175   -4.6723 H         1 UNK         0.3140 
     76 H76        27.6358   -5.2266   -2.4127 H         1 UNK         0.1085 
     77 H77        30.1720   -5.5338   -2.3677 H         1 UNK         0.0836 
     78 H78        30.3426   -3.8351   -2.7205 H         1 UNK         0.0836 
     79 H79        31.8876   -4.3449   -0.1203 H         1 UNK         0.0731 
     80 H80        31.1251   -3.3020    1.0514 H         1 UNK         0.0731 
     81 H81        33.1637   -3.3029   -1.8049 H         1 UNK         0.1312 
     82 H82        32.5175    0.7851   -2.9009 H         1 UNK         0.1406 
     83 H83        29.9501   -1.0930   -0.0189 H         1 UNK         0.1631 
     84 H84        30.9533    1.9993   -0.7260 H         1 UNK         0.0717 
     85 H85        29.4378    1.1303   -0.7414 H         1 UNK         0.0717 
     86 H86        29.1292   -0.1147   -3.4127 H         1 UNK         0.0934 
     87 H87        27.8158    0.9347   -2.9430 H         1 UNK         0.0934 
     88 H88        29.3213    1.2965   -5.5867 H         1 UNK         0.0739 
     89 H89        27.6651   -0.8961   -5.0302 H         1 UNK         0.3093 
     90 H90        26.2404   -1.3580   -8.2666 H         1 UNK         0.0818 
     91 H91        27.2420   -3.5530   -8.0916 H         1 UNK         0.0819 
     92 H92        28.5580   -2.4139   -8.2883 H         1 UNK         0.0819 
     93 H93        28.2119   -3.0832   -6.6982 H         1 UNK         0.0819 
     94 H94        26.0605   -2.7515   -5.7340 H         1 UNK         0.3041 
     95 H95        23.1143   -1.0404   -4.6317 H         1 UNK         0.0784 
     96 H96        22.4493   -2.9239   -6.1446 H         1 UNK         0.0793 
     97 H97        23.7373   -3.9230   -5.4838 H         1 UNK         0.0793 
     98 H98        22.4012   -3.4045   -4.4567 H         1 UNK         0.0793 
     99 H99        24.7622   -3.0305   -3.3990 H         1 UNK         0.3024 
    100 H100       26.9863   -0.8269   -1.7198 H         1 UNK         0.1171 
    101 H101       24.9013   -0.6372   -0.3524 H         1 UNK         0.0786 
    102 H102       26.0137   -1.8144    0.3235 H         1 UNK         0.0786 
    103 H103       24.5919   -2.3543   -0.5711 H         1 UNK         0.0786 
    104 H104       26.7044   -3.5483   -1.3101 H         1 UNK         0.2977 
    105 H105       25.8691    1.3135   -4.4917 H         1 UNK         0.3127 
    106 H106       25.4585    4.1017   -4.6670 H         1 UNK         0.0770 
    107 H107       23.4627    1.7867   -4.9117 H         1 UNK         0.0814 
    108 H108       23.0326    3.4675   -4.6183 H         1 UNK         0.0814 
    109 H109       23.9574    2.5796   -3.4174 H         1 UNK         0.0814 
    110 H110       25.1717    1.5833   -7.1722 H         1 UNK         0.2983 
    111 H111       24.0971    3.3210   -9.2161 H         1 UNK         0.0947 
    112 H112       24.5628    1.3869  -10.6967 H         1 UNK         0.0806 
    113 H113       23.7964    0.8329   -9.2172 H         1 UNK         0.0806 
    114 H114       25.5320    0.6220   -9.4478 H         1 UNK         0.0806 
    115 H115       27.1727    3.2363   -7.8258 H         1 UNK         0.3000 
    116 H116       29.1464    4.0899   -8.2275 H         1 UNK         0.0850 
    117 H117       29.4452    5.9935   -9.7492 H         1 UNK         0.0810 
    118 H118       27.9041    6.1568   -8.9248 H         1 UNK         0.0810 
    119 H119       27.9581    5.6164  -10.6030 H         1 UNK         0.0810 
    120 H120       28.5656    1.5265   -9.2401 H         1 UNK         0.3040 
    121 H121       30.3403    1.2089  -11.6138 H         1 UNK         0.0766 
    122 H122       28.1925   -0.1028  -11.5504 H         1 UNK         0.0812 
    123 H123       28.6726   -0.8225  -10.0192 H         1 UNK         0.0812 
    124 H124       29.5849   -1.1671  -11.4816 H         1 UNK         0.0812 
    125 H125       31.8878   -0.7549  -11.2245 H         1 UNK         0.3205 
    126 H126       33.7185   -0.0858   -9.0946 H         1 UNK         0.0754 
    127 H127       35.1588   -1.7767  -10.1872 H         1 UNK         0.0769 
    128 H128       34.4736   -0.6968  -11.3859 H         1 UNK         0.0769 
    129 H129       33.8161   -2.3218  -11.1838 H         1 UNK         0.0769 
    130 H130       31.4506   -0.7715   -7.8581 H         1 UNK         0.2981 
    131 H131       30.3033   -2.0864   -6.5349 H         1 UNK         0.0541 
    132 H132       31.8455   -4.4718   -4.9542 H         1 UNK         0.3459 
    133 H133       31.3452   -5.8008   -5.9746 H         1 UNK         0.3459 
    134 H134       31.8482   -0.9033   -5.1209 H         1 UNK         0.0612 
    135 H135       31.2829   -2.3710   -4.3910 H         1 UNK         0.0612 
    136 H136       34.9896   -1.7303   -3.0035 H         1 UNK         0.0624 
    137 H137       34.3173   -0.3822   -3.8906 H         1 UNK         0.0624 
@<TRIPOS>BOND
     1    1    2 1    
     2    1   72 1    
     3    1   73 1    
     4    1   74 1    
     5    2    3 2    
     6    2    4 am   BACKBONE|DICT|INTERRES
     7    4    5 1    
     8    4   75 1    
     9    5    6 1    
    10    5   35 1    
    11    5   76 1    
    12    6    7 1    
    13    6   77 1    
    14    6   78 1    
    15    7    8 1    
    16    8    9 1    
    17    8   79 1    
    18    8   80 1    
    19    9   10 ar   
    20    9   14 ar   
    21   10   11 ar   
    22   10   81 1    
    23   11   12 ar   
    24   11   71 1    
    25   12   13 ar   
    26   12   82 1    
    27   13   14 ar   
    28   13   15 1    
    29   14   83 1    
    30   15   16 1    
    31   15   84 1    
    32   15   85 1    
    33   16   17 1    
    34   17   18 1    
    35   17   86 1    
    36   17   87 1    
    37   18   19 1    
    38   18   37 1    
    39   18   88 1    
    40   19   20 am   BACKBONE|DICT|INTERRES
    41   19   89 1    
    42   20   21 2    
    43   20   22 1    
    44   22   23 1    
    45   22   24 1    
    46   22   90 1    
    47   23   91 1    
    48   23   92 1    
    49   23   93 1    
    50   24   25 am   BACKBONE|DICT|INTERRES
    51   24   94 1    
    52   25   26 2    
    53   25   27 1    
    54   27   28 1    
    55   27   29 1    
    56   27   95 1    
    57   28   96 1    
    58   28   97 1    
    59   28   98 1    
    60   29   30 am   BACKBONE|DICT|INTERRES
    61   29   99 1    
    62   30   31 2    
    63   30   32 1    
    64   32   33 1    
    65   32   34 1    
    66   32  100 1    
    67   33  101 1    
    68   33  102 1    
    69   33  103 1    
    70   34   35 am   BACKBONE|DICT|INTERRES
    71   34  104 1    
    72   35   36 2    
    73   37   38 2    
    74   37   39 am   BACKBONE|DICT|INTERRES
    75   39   40 1    
    76   39  105 1    
    77   40   41 1    
    78   40   42 1    
    79   40  106 1    
    80   41  107 1    
    81   41  108 1    
    82   41  109 1    
    83   42   43 2    
    84   42   44 am   BACKBONE|DICT|INTERRES
    85   44   45 1    
    86   44  110 1    
    87   45   46 1    
    88   45   47 1    
    89   45  111 1    
    90   46  112 1    
    91   46  113 1    
    92   46  114 1    
    93   47   48 2    
    94   47   49 am   BACKBONE|DICT|INTERRES
    95   49   50 1    
    96   49  115 1    
    97   50   51 1    
    98   50   52 1    
    99   50  116 1    
   100   51  117 1    
   101   51  118 1    
   102   51  119 1    
   103   52   53 2    
   104   52   54 am   BACKBONE|DICT|INTERRES
   105   54   55 1    
   106   54  120 1    
   107   55   56 1    
   108   55   57 1    
   109   55  121 1    
   110   56  122 1    
   111   56  123 1    
   112   56  124 1    
   113   57   58 2    
   114   57   59 am   BACKBONE|DICT|INTERRES
   115   59   60 1    
   116   59  125 1    
   117   60   61 1    
   118   60   62 1    
   119   60  126 1    
   120   61  127 1    
   121   61  128 1    
   122   61  129 1    
   123   62   63 2    
   124   62   64 am   BACKBONE|DICT|INTERRES
   125   64   65 1    
   126   64  130 1    
   127   65   66 1    
   128   65   69 1    
   129   65  131 1    
   130   66   67 am   BACKBONE|DICT|INTERRES
   131   66   68 2    
   132   67  132 1    
   133   67  133 1    
   134   69   70 1    
   135   69  134 1    
   136   69  135 1    
   137   70   71 1    
   138   71  136 1    
   139   71  137 1    
@<TRIPOS>SUBSTRUCTURE
     1 UNK         1 GROUP             0       ****    0 ROOT    
