@<TRIPOS>MOLECULE
3R137
137   139    1
SMALL
USER_CHARGES


@<TRIPOS>ATOM
      1 CA         28.3778    1.3309   -0.6815 C.3       0 UNK        -0.2020 
      2 C          28.3199   -0.1101   -1.1643 C.2       0 UNK         0.4855 
      3 O          28.2985   -0.3518   -2.3711 O.2       0 UNK        -0.5197 
      4 N          28.2882   -1.0736   -0.2341 N.am      1 UNK        -0.4892 
      5 CA         28.2333   -2.5112   -0.5223 C.3       1 UNK         0.0835 
      6 C6         28.8650   -3.3684    0.6063 C.3       12 UNK        -0.0855 
      7 S7         30.6417   -3.0300    0.8506 S.3       12 UNK        -0.2931 
      8 C8         31.4125   -4.3314   -0.1691 C.3       12 UNK         0.0378 
      9 C9         31.2857   -4.0219   -1.6537 C.ar      12 UNK        -0.0802 
     10 C10        32.1565   -3.1055   -2.2483 C.ar      12 UNK        -0.0944 
     11 C11        32.0309   -2.7870   -3.6017 C.ar      12 UNK        -0.0787 
     12 C12        31.0356   -3.4024   -4.3644 C.ar      12 UNK        -0.0862 
     13 C13        30.1204   -4.2847   -3.7746 C.ar      12 UNK        -0.0733 
     14 C14        30.2806   -4.6169   -2.4244 C.ar      12 UNK        -0.0832 
     15 C15        28.9348   -4.8847   -4.5386 C.3       12 UNK         0.0240 
     16 S16        28.4497   -4.0394   -6.0896 S.3       12 UNK        -0.2522 
     17 C17        28.0927   -2.3388   -5.5334 C.3       12 UNK        -0.0967 
     18 CA         27.4700   -1.4890   -6.6697 C.3       5 UNK         0.0660 
     19 N          26.0321   -1.7270   -6.8264 N.am      5 UNK        -0.4015 
     20 C          25.2761   -1.2440   -7.8236 C.2       4 UNK         0.4946 
     21 O          25.7112   -0.5616   -8.7507 O.2       4 UNK        -0.5353 
     22 CA         23.7692   -1.5404   -7.7538 C.3       4 UNK         0.0277 
     23 CB         23.4708   -2.9661   -8.2448 C.3       4 UNK        -0.1981 
     24 N          23.2206   -1.3532   -6.4084 N.am      4 UNK        -0.4209 
     25 C          23.1468   -0.1702   -5.7807 C.2       3 UNK         0.4942 
     26 O          23.4934    0.8978   -6.2831 O.2       3 UNK        -0.5208 
     27 CA         22.6554   -0.1907   -4.3232 C.3       3 UNK         0.0250 
     28 CB         21.1198   -0.2298   -4.2670 C.3       3 UNK        -0.1990 
     29 N          23.2111   -1.2945   -3.5297 N.am      3 UNK        -0.4232 
     30 C          24.5208   -1.5045   -3.3411 C.2       2 UNK         0.4993 
     31 O          25.4057   -0.8201   -3.8593 O.2       2 UNK        -0.5286 
     32 CA         24.9171   -2.6986   -2.4710 C.3       2 UNK         0.0209 
     33 CB         24.8825   -4.0077   -3.2817 C.3       2 UNK        -0.1931 
     34 N          26.2681   -2.4605   -1.9749 N.am      2 UNK        -0.4546 
     35 C          26.7910   -2.9508   -0.8494 C.2       1 UNK         0.5154 
     36 O          26.1769   -3.6976   -0.0844 O.2       1 UNK        -0.5181 
     37 C          27.7852    0.0047   -6.4753 C.2       5 UNK         0.5014 
     38 O          28.7048    0.5106   -7.1225 O.2       5 UNK        -0.5248 
     39 N          27.0089    0.6763   -5.6147 N.am      6 UNK        -0.4434 
     40 CA         27.0984    2.1098   -5.3463 C.3       6 UNK         0.0363 
     41 CB         26.1968    2.4634   -4.1531 C.3       6 UNK        -0.1936 
     42 C          26.7455    2.9665   -6.5726 C.2       6 UNK         0.5081 
     43 O          27.4612    3.9265   -6.8574 O.2       6 UNK        -0.5248 
     44 N          25.6699    2.5999   -7.2859 N.am      7 UNK        -0.4718 
     45 CA         25.2174    3.2733   -8.5069 C.3       7 UNK         0.0273 
     46 CB         23.8276    2.7528   -8.9065 C.3       7 UNK        -0.1935 
     47 C          26.2047    3.1271   -9.6753 C.2       7 UNK         0.5018 
     48 O          26.4603    4.1085  -10.3744 O.2       7 UNK        -0.5186 
     49 N          26.7479    1.9160   -9.8612 N.am      8 UNK        -0.4240 
     50 CA         27.7473    1.6154  -10.8890 C.3       8 UNK         0.0235 
     51 CB         27.8155    0.0930  -11.0955 C.3       8 UNK        -0.2000 
     52 C          29.1485    2.1592  -10.5619 C.2       8 UNK         0.4941 
     53 O          29.9432    2.3313  -11.4869 O.2       8 UNK        -0.5273 
     54 N          29.4355    2.3712   -9.2666 N.am      9 UNK        -0.4262 
     55 CA         30.7574    2.6201   -8.6758 C.3       9 UNK         0.0264 
     56 CB         31.3323    3.9796   -9.1262 C.3       9 UNK        -0.1955 
     57 C          31.6985    1.4317   -8.9509 C.2       9 UNK         0.5031 
     58 O          32.8008    1.6133   -9.4717 O.2       9 UNK        -0.5390 
     59 N          31.2027    0.2251   -8.6385 N.am      10 UNK        -0.4204 
     60 CA         31.7359   -1.0695   -9.0810 C.3       10 UNK         0.0237 
     61 CB         30.8242   -2.1917   -8.5612 C.3       10 UNK        -0.1985 
     62 C          33.2071   -1.3577   -8.7301 C.2       10 UNK         0.4970 
     63 O          33.8670   -2.0718   -9.4866 O.2       10 UNK        -0.4914 
     64 N          33.6932   -0.8042   -7.6135 N.am      11 UNK        -0.4285 
     65 CA         35.0985   -0.9015   -7.1839 C.3       11 UNK         0.1007 
     66 C          36.0173    0.2064   -7.7798 C.2       11 UNK         0.5703 
     67 N          35.5190    1.1474   -8.5739 N.am      11 UNK        -0.7361 
     68 O          37.2203    0.2042   -7.5287 O.2       11 UNK        -0.4986 
     69 C69        35.2238   -0.9837   -5.6395 C.3       12 UNK        -0.0947 
     70 S70        34.4192   -2.4720   -4.9560 S.3       12 UNK        -0.2240 
     71 C71        32.9304   -1.7344   -4.2275 C.3       12 UNK         0.0194 
     72 H72        29.2046    1.8534   -1.1621 H         1 UNK         0.0906 
     73 H73        27.4536    1.8488   -0.9354 H         1 UNK         0.0906 
     74 H74        28.5191    1.3940    0.3972 H         1 UNK         0.0906 
     75 H75        28.2973   -0.8250    0.7450 H         1 UNK         0.3140 
     76 H76        28.8112   -2.6841   -1.4297 H         1 UNK         0.1085 
     77 H77        28.3518   -3.1872    1.5526 H         1 UNK         0.0836 
     78 H78        28.7390   -4.4330    0.4000 H         1 UNK         0.0836 
     79 H79        32.4684   -4.4053    0.0957 H         1 UNK         0.0731 
     80 H80        30.9735   -5.3019    0.0676 H         1 UNK         0.0731 
     81 H81        32.9196   -2.6250   -1.6510 H         1 UNK         0.1312 
     82 H82        30.9583   -3.1559   -5.4122 H         1 UNK         0.1406 
     83 H83        29.5935   -5.3114   -1.9598 H         1 UNK         0.1631 
     84 H84        28.0603   -4.9074   -3.8862 H         1 UNK         0.0717 
     85 H85        29.1689   -5.9232   -4.7757 H         1 UNK         0.0717 
     86 H86        27.4457   -2.3660   -4.6566 H         1 UNK         0.0934 
     87 H87        29.0259   -1.8916   -5.1897 H         1 UNK         0.0934 
     88 H88        27.9395   -1.7726   -7.6133 H         1 UNK         0.0739 
     89 H89        25.5816   -2.2432   -6.0873 H         1 UNK         0.3093 
     90 H90        23.2647   -0.8383   -8.4213 H         1 UNK         0.0818 
     91 H91        22.3979   -3.1555   -8.2833 H         1 UNK         0.0819 
     92 H92        23.8607   -3.1195   -9.2522 H         1 UNK         0.0819 
     93 H93        23.9228   -3.7227   -7.6022 H         1 UNK         0.0819 
     94 H94        22.9063   -2.1776   -5.9181 H         1 UNK         0.3041 
     95 H95        22.9875    0.7403   -3.8587 H         1 UNK         0.0784 
     96 H96        20.6881    0.5919   -4.8405 H         1 UNK         0.0793 
     97 H97        20.7211   -1.1583   -4.6774 H         1 UNK         0.0793 
     98 H98        20.7574   -0.1317   -3.2434 H         1 UNK         0.0793 
     99 H99        22.5463   -1.9089   -3.0812 H         1 UNK         0.3024 
    100 H100       24.2254   -2.7614   -1.6276 H         1 UNK         0.1171 
    101 H101       23.8819   -4.2071   -3.6670 H         1 UNK         0.0786 
    102 H102       25.1645   -4.8618   -2.6657 H         1 UNK         0.0786 
    103 H103       25.5619   -3.9751   -4.1341 H         1 UNK         0.0786 
    104 H104       26.7933   -1.7554   -2.4894 H         1 UNK         0.2977 
    105 H105       26.3231    0.1545   -5.0689 H         1 UNK         0.3127 
    106 H106       28.1319    2.3294   -5.0700 H         1 UNK         0.0770 
    107 H107       25.1479    2.2515   -4.3636 H         1 UNK         0.0814 
    108 H108       26.2755    3.5219   -3.9028 H         1 UNK         0.0814 
    109 H109       26.4781    1.8952   -3.2665 H         1 UNK         0.0814 
    110 H110       25.0981    1.8272   -6.9544 H         1 UNK         0.2983 
    111 H111       25.1287    4.3390   -8.2848 H         1 UNK         0.0947 
    112 H112       23.4723    3.2404   -9.8153 H         1 UNK         0.0806 
    113 H113       23.0926    2.9489   -8.1257 H         1 UNK         0.0806 
    114 H114       23.8377    1.6782   -9.0930 H         1 UNK         0.0806 
    115 H115       26.4366    1.1381   -9.2828 H         1 UNK         0.3000 
    116 H116       27.4260    2.0737  -11.8269 H         1 UNK         0.0850 
    117 H117       28.5287   -0.1657  -11.8793 H         1 UNK         0.0810 
    118 H118       26.8472   -0.3112  -11.3912 H         1 UNK         0.0810 
    119 H119       28.1285   -0.4218  -10.1859 H         1 UNK         0.0810 
    120 H120       28.7096    2.1526   -8.5943 H         1 UNK         0.3040 
    121 H121       30.6112    2.6624   -7.5953 H         1 UNK         0.0766 
    122 H122       31.5537    3.9973  -10.1936 H         1 UNK         0.0812 
    123 H123       30.6374    4.7920   -8.9136 H         1 UNK         0.0812 
    124 H124       32.2620    4.1999   -8.6004 H         1 UNK         0.0812 
    125 H125       30.2980    0.2095   -8.1722 H         1 UNK         0.3205 
    126 H126       31.6764   -1.0716  -10.1713 H         1 UNK         0.0754 
    127 H127       31.2222   -3.1765   -8.8105 H         1 UNK         0.0769 
    128 H128       29.8312   -2.1280   -9.0054 H         1 UNK         0.0769 
    129 H129       30.7125   -2.1473   -7.4784 H         1 UNK         0.0769 
    130 H130       33.0947   -0.2039   -7.0680 H         1 UNK         0.2981 
    131 H131       35.5087   -1.8348   -7.5742 H         1 UNK         0.0541 
    132 H132       34.5339    1.1709   -8.8240 H         1 UNK         0.3459 
    133 H133       36.1403    1.8458   -8.9490 H         1 UNK         0.3459 
    134 H134       34.8176   -0.0856   -5.1711 H         1 UNK         0.0612 
    135 H135       36.2729   -1.0304   -5.3416 H         1 UNK         0.0612 
    136 H136       33.2227   -0.9986   -3.4766 H         1 UNK         0.0624 
    137 H137       32.3816   -1.1888   -4.9965 H         1 UNK         0.0624 
@<TRIPOS>BOND
     1    1    2 1    
     2    1   72 1    
     3    1   73 1    
     4    1   74 1    
     5    2    3 2    
     6    2    4 am   BACKBONE|DICT|INTERRES
     7    4    5 1    
     8    4   75 1    
     9    5    6 1    
    10    5   35 1    
    11    5   76 1    
    12    6    7 1    
    13    6   77 1    
    14    6   78 1    
    15    7    8 1    
    16    8    9 1    
    17    8   79 1    
    18    8   80 1    
    19    9   10 ar   
    20    9   14 ar   
    21   10   11 ar   
    22   10   81 1    
    23   11   12 ar   
    24   11   71 1    
    25   12   13 ar   
    26   12   82 1    
    27   13   14 ar   
    28   13   15 1    
    29   14   83 1    
    30   15   16 1    
    31   15   84 1    
    32   15   85 1    
    33   16   17 1    
    34   17   18 1    
    35   17   86 1    
    36   17   87 1    
    37   18   19 1    
    38   18   37 1    
    39   18   88 1    
    40   19   20 am   BACKBONE|DICT|INTERRES
    41   19   89 1    
    42   20   21 2    
    43   20   22 1    
    44   22   23 1    
    45   22   24 1    
    46   22   90 1    
    47   23   91 1    
    48   23   92 1    
    49   23   93 1    
    50   24   25 am   BACKBONE|DICT|INTERRES
    51   24   94 1    
    52   25   26 2    
    53   25   27 1    
    54   27   28 1    
    55   27   29 1    
    56   27   95 1    
    57   28   96 1    
    58   28   97 1    
    59   28   98 1    
    60   29   30 am   BACKBONE|DICT|INTERRES
    61   29   99 1    
    62   30   31 2    
    63   30   32 1    
    64   32   33 1    
    65   32   34 1    
    66   32  100 1    
    67   33  101 1    
    68   33  102 1    
    69   33  103 1    
    70   34   35 am   BACKBONE|DICT|INTERRES
    71   34  104 1    
    72   35   36 2    
    73   37   38 2    
    74   37   39 am   BACKBONE|DICT|INTERRES
    75   39   40 1    
    76   39  105 1    
    77   40   41 1    
    78   40   42 1    
    79   40  106 1    
    80   41  107 1    
    81   41  108 1    
    82   41  109 1    
    83   42   43 2    
    84   42   44 am   BACKBONE|DICT|INTERRES
    85   44   45 1    
    86   44  110 1    
    87   45   46 1    
    88   45   47 1    
    89   45  111 1    
    90   46  112 1    
    91   46  113 1    
    92   46  114 1    
    93   47   48 2    
    94   47   49 am   BACKBONE|DICT|INTERRES
    95   49   50 1    
    96   49  115 1    
    97   50   51 1    
    98   50   52 1    
    99   50  116 1    
   100   51  117 1    
   101   51  118 1    
   102   51  119 1    
   103   52   53 2    
   104   52   54 am   BACKBONE|DICT|INTERRES
   105   54   55 1    
   106   54  120 1    
   107   55   56 1    
   108   55   57 1    
   109   55  121 1    
   110   56  122 1    
   111   56  123 1    
   112   56  124 1    
   113   57   58 2    
   114   57   59 am   BACKBONE|DICT|INTERRES
   115   59   60 1    
   116   59  125 1    
   117   60   61 1    
   118   60   62 1    
   119   60  126 1    
   120   61  127 1    
   121   61  128 1    
   122   61  129 1    
   123   62   63 2    
   124   62   64 am   BACKBONE|DICT|INTERRES
   125   64   65 1    
   126   64  130 1    
   127   65   66 1    
   128   65   69 1    
   129   65  131 1    
   130   66   67 am   BACKBONE|DICT|INTERRES
   131   66   68 2    
   132   67  132 1    
   133   67  133 1    
   134   69   70 1    
   135   69  134 1    
   136   69  135 1    
   137   70   71 1    
   138   71  136 1    
   139   71  137 1    
@<TRIPOS>SUBSTRUCTURE
     1 UNK         1 GROUP             0       ****    0 ROOT    
