@<TRIPOS>MOLECULE
3R137
137   139    1
SMALL
USER_CHARGES


@<TRIPOS>ATOM
      1 CA         24.9752   -5.6233   -2.1567 C.3       0 UNK        -0.2020 
      2 C          25.3823   -4.8358   -0.9204 C.2       0 UNK         0.4855 
      3 O          24.5756   -4.6676   -0.0062 O.2       0 UNK        -0.5197 
      4 N          26.6263   -4.3407   -0.8908 N.am      1 UNK        -0.4892 
      5 CA         27.1978   -3.5585    0.2180 C.3       1 UNK         0.0835 
      6 C6         28.7394   -3.7215    0.3245 C.3       12 UNK        -0.0855 
      7 S7         29.2731   -5.4722    0.3285 S.3       12 UNK        -0.2931 
      8 C8         30.7907   -5.4422   -0.6952 C.3       12 UNK         0.0378 
      9 C9         30.6253   -4.7986   -2.0719 C.ar      12 UNK        -0.0802 
     10 C10        31.6681   -4.0266   -2.5966 C.ar      12 UNK        -0.0944 
     11 C11        31.5386   -3.4043   -3.8413 C.ar      12 UNK        -0.0787 
     12 C12        30.3388   -3.5271   -4.5479 C.ar      12 UNK        -0.0862 
     13 C13        29.2947   -4.3080   -4.0454 C.ar      12 UNK        -0.0733 
     14 C14        29.4556   -4.9666   -2.8234 C.ar      12 UNK        -0.0832 
     15 C15        27.9927   -4.4264   -4.8205 C.3       12 UNK         0.0240 
     16 S16        26.8431   -3.1097   -4.3199 S.3       12 UNK        -0.2522 
     17 C17        25.5512   -3.2189   -5.6112 C.3       12 UNK        -0.0967 
     18 CA         25.7363   -2.2187   -6.7881 C.3       5 UNK         0.0660 
     19 N          26.0604   -0.8748   -6.3040 N.am      5 UNK        -0.4015 
     20 C          26.2304    0.2325   -7.0372 C.2       4 UNK         0.4946 
     21 O          26.0108    0.2923   -8.2464 O.2       4 UNK        -0.5353 
     22 CA         26.8057    1.4632   -6.3120 C.3       4 UNK         0.0277 
     23 CB         25.7157    2.5213   -6.0869 C.3       4 UNK        -0.1981 
     24 N          27.4546    1.1519   -5.0318 N.am      4 UNK        -0.4209 
     25 C          28.5368    0.3792   -4.8655 C.2       3 UNK         0.4942 
     26 O          29.1553   -0.1260   -5.8030 O.2       3 UNK        -0.5208 
     27 CA         28.9759    0.0807   -3.4214 C.3       3 UNK         0.0250 
     28 CB         29.8019    1.2367   -2.8253 C.3       3 UNK        -0.1990 
     29 N          27.8659   -0.3079   -2.5392 N.am      3 UNK        -0.4232 
     30 C          26.8359    0.4282   -2.0915 C.2       2 UNK         0.4993 
     31 O          26.6869    1.6227   -2.3515 O.2       2 UNK        -0.5286 
     32 CA         25.7492   -0.2971   -1.2784 C.3       2 UNK         0.0209 
     33 CB         24.4271   -0.3210   -2.0656 C.3       2 UNK        -0.1931 
     34 N          26.1161   -1.6762   -0.9501 N.am      2 UNK        -0.4546 
     35 C          26.8187   -2.0622    0.1245 C.2       1 UNK         0.5154 
     36 O          27.1912   -1.2840    1.0033 O.2       1 UNK        -0.5181 
     37 C          26.7244   -2.7657   -7.8455 C.2       5 UNK         0.5014 
     38 O          26.3434   -3.6708   -8.5893 O.2       5 UNK        -0.5248 
     39 N          27.9562   -2.2313   -7.9013 N.am      6 UNK        -0.4434 
     40 CA         28.9667   -2.5808   -8.8998 C.3       6 UNK         0.0363 
     41 CB         30.3137   -1.9436   -8.5249 C.3       6 UNK        -0.1936 
     42 C          28.5623   -2.1936  -10.3328 C.2       6 UNK         0.5081 
     43 O          28.4969   -3.0702  -11.1957 O.2       6 UNK        -0.5248 
     44 N          28.3266   -0.8949  -10.5696 N.am      7 UNK        -0.4718 
     45 CA         28.0923   -0.3383  -11.9086 C.3       7 UNK         0.0273 
     46 CB         29.4131   -0.3220  -12.7137 C.3       7 UNK        -0.1935 
     47 C          27.4264    1.0496  -11.8684 C.2       7 UNK         0.5018 
     48 O          27.7209    1.8814  -12.7282 O.2       7 UNK        -0.5186 
     49 N          26.5617    1.2972  -10.8713 N.am      8 UNK        -0.4240 
     50 CA         25.8662    2.5693  -10.6028 C.3       8 UNK         0.0235 
     51 CB         24.9239    2.9585  -11.7627 C.3       8 UNK        -0.2000 
     52 C          26.8066    3.7209  -10.1848 C.2       8 UNK         0.4941 
     53 O          26.4163    4.8878  -10.2490 O.2       8 UNK        -0.5273 
     54 N          28.0136    3.3701   -9.7334 N.am      9 UNK        -0.4262 
     55 CA         29.0319    4.2373   -9.1601 C.3       9 UNK         0.0264 
     56 CB         30.0066    4.7000  -10.2553 C.3       9 UNK        -0.1955 
     57 C          29.7448    3.3975   -8.0985 C.2       9 UNK         0.5031 
     58 O          29.8880    2.1866   -8.3012 O.2       9 UNK        -0.5390 
     59 N          30.1382    4.0407   -6.9910 N.am      10 UNK        -0.4204 
     60 CA         30.6749    3.4250   -5.7730 C.3       10 UNK         0.0237 
     61 CB         30.9652    4.5235   -4.7350 C.3       10 UNK        -0.1985 
     62 C          31.9087    2.5392   -6.0234 C.2       10 UNK         0.4970 
     63 O          33.0260    3.0556   -6.0866 O.2       10 UNK        -0.4914 
     64 N          31.6647    1.2327   -6.1844 N.am      11 UNK        -0.4285 
     65 CA         32.6442    0.1997   -6.5449 C.3       11 UNK         0.1007 
     66 C          33.3359    0.4357   -7.9211 C.2       11 UNK         0.5703 
     67 N          32.6695    1.0874   -8.8688 N.am      11 UNK        -0.7361 
     68 O          34.4636    0.0036   -8.1486 O.2       11 UNK        -0.4986 
     69 C69        33.6053   -0.1585   -5.3766 C.3       12 UNK        -0.0947 
     70 S70        32.6832   -0.8770   -3.9732 S.3       12 UNK        -0.2240 
     71 C71        32.7038   -2.6334   -4.4438 C.3       12 UNK         0.0194 
     72 H72        24.2325   -5.0672   -2.7282 H         1 UNK         0.0906 
     73 H73        25.8237   -5.8265   -2.8091 H         1 UNK         0.0906 
     74 H74        24.5382   -6.5785   -1.8669 H         1 UNK         0.0906 
     75 H75        27.2454   -4.4978   -1.6716 H         1 UNK         0.3140 
     76 H76        26.7670   -3.9253    1.1527 H         1 UNK         0.1085 
     77 H77        29.2339   -3.1845   -0.4862 H         1 UNK         0.0836 
     78 H78        29.1038   -3.2630    1.2459 H         1 UNK         0.0836 
     79 H79        31.1421   -6.4659   -0.8294 H         1 UNK         0.0731 
     80 H80        31.5654   -4.9225   -0.1290 H         1 UNK         0.0731 
     81 H81        32.5887   -3.9140   -2.0399 H         1 UNK         0.1312 
     82 H82        30.2183   -3.0196   -5.4939 H         1 UNK         0.1406 
     83 H83        28.6630   -5.5962   -2.4457 H         1 UNK         0.1631 
     84 H84        27.5318   -5.4007   -4.6523 H         1 UNK         0.0717 
     85 H85        28.1943   -4.3616   -5.8901 H         1 UNK         0.0717 
     86 H86        25.4637   -4.2480   -5.9666 H         1 UNK         0.0934 
     87 H87        24.5991   -3.0093   -5.1212 H         1 UNK         0.0934 
     88 H88        24.7763   -2.1337   -7.3016 H         1 UNK         0.0739 
     89 H89        26.2904   -0.8244   -5.3231 H         1 UNK         0.3093 
     90 H90        27.5633    1.8878   -6.9696 H         1 UNK         0.0818 
     91 H91        26.1334    3.4359   -5.6656 H         1 UNK         0.0819 
     92 H92        25.2315    2.7914   -7.0265 H         1 UNK         0.0819 
     93 H93        24.9396    2.1630   -5.4093 H         1 UNK         0.0819 
     94 H94        27.0245    1.5252   -4.1874 H         1 UNK         0.3041 
     95 H95        29.6266   -0.7939   -3.4703 H         1 UNK         0.0784 
     96 H96        30.7106    1.4039   -3.4027 H         1 UNK         0.0793 
     97 H97        29.2486    2.1761   -2.8091 H         1 UNK         0.0793 
     98 H98        30.1115    1.0130   -1.8045 H         1 UNK         0.0793 
     99 H99        27.8500   -1.2883   -2.2977 H         1 UNK         0.3024 
    100 H100       25.5972    0.2703   -0.3571 H         1 UNK         0.1171 
    101 H101       24.0922    0.6900   -2.3026 H         1 UNK         0.0786 
    102 H102       23.6322   -0.7949   -1.4893 H         1 UNK         0.0786 
    103 H103       24.5255   -0.8614   -3.0082 H         1 UNK         0.0786 
    104 H104       25.8384   -2.3917   -1.6072 H         1 UNK         0.2977 
    105 H105       28.2041   -1.5054   -7.2385 H         1 UNK         0.3127 
    106 H106       29.0940   -3.6654   -8.8785 H         1 UNK         0.0770 
    107 H107       30.2281   -0.8651   -8.3842 H         1 UNK         0.0814 
    108 H108       31.0606   -2.1134   -9.3018 H         1 UNK         0.0814 
    109 H109       30.7065   -2.3754   -7.6067 H         1 UNK         0.0814 
    110 H110       28.3925   -0.2392   -9.8033 H         1 UNK         0.2983 
    111 H111       27.3851   -0.9876  -12.4294 H         1 UNK         0.0947 
    112 H112       29.2555    0.0466  -13.7281 H         1 UNK         0.0806 
    113 H113       29.8445   -1.3182  -12.8087 H         1 UNK         0.0806 
    114 H114       30.1579    0.3209  -12.2430 H         1 UNK         0.0806 
    115 H115       26.3849    0.5752  -10.1772 H         1 UNK         0.3000 
    116 H116       25.2364    2.3815   -9.7323 H         1 UNK         0.0850 
    117 H117       24.2869    3.7983  -11.4826 H         1 UNK         0.0810 
    118 H118       24.2666    2.1327  -12.0345 H         1 UNK         0.0810 
    119 H119       25.4758    3.2576  -12.6540 H         1 UNK         0.0810 
    120 H120       28.2447    2.3873   -9.6667 H         1 UNK         0.3040 
    121 H121       28.5599    5.1014   -8.6874 H         1 UNK         0.0766 
    122 H122       29.4901    5.2685  -11.0288 H         1 UNK         0.0812 
    123 H123       30.5011    3.8550  -10.7367 H         1 UNK         0.0812 
    124 H124       30.7839    5.3436   -9.8417 H         1 UNK         0.0812 
    125 H125       30.0054    5.0410   -6.9527 H         1 UNK         0.3205 
    126 H126       29.8838    2.7988   -5.3637 H         1 UNK         0.0754 
    127 H127       31.3694    4.0950   -3.8167 H         1 UNK         0.0769 
    128 H128       30.0585    5.0651   -4.4646 H         1 UNK         0.0769 
    129 H129       31.6927    5.2478   -5.1041 H         1 UNK         0.0769 
    130 H130       30.7026    0.9054   -6.1701 H         1 UNK         0.2981 
    131 H131       32.0453   -0.6902   -6.7235 H         1 UNK         0.0541 
    132 H132       31.7340    1.4352   -8.6867 H         1 UNK         0.3459 
    133 H133       33.1023    1.2375   -9.7654 H         1 UNK         0.3459 
    134 H134       34.3649   -0.8762   -5.6910 H         1 UNK         0.0612 
    135 H135       34.1449    0.7252   -5.0336 H         1 UNK         0.0612 
    136 H136       33.6520   -3.0740   -4.1321 H         1 UNK         0.0624 
    137 H137       32.6698   -2.7255   -5.5304 H         1 UNK         0.0624 
@<TRIPOS>BOND
     1    1    2 1    
     2    1   72 1    
     3    1   73 1    
     4    1   74 1    
     5    2    3 2    
     6    2    4 am   BACKBONE|DICT|INTERRES
     7    4    5 1    
     8    4   75 1    
     9    5    6 1    
    10    5   35 1    
    11    5   76 1    
    12    6    7 1    
    13    6   77 1    
    14    6   78 1    
    15    7    8 1    
    16    8    9 1    
    17    8   79 1    
    18    8   80 1    
    19    9   10 ar   
    20    9   14 ar   
    21   10   11 ar   
    22   10   81 1    
    23   11   12 ar   
    24   11   71 1    
    25   12   13 ar   
    26   12   82 1    
    27   13   14 ar   
    28   13   15 1    
    29   14   83 1    
    30   15   16 1    
    31   15   84 1    
    32   15   85 1    
    33   16   17 1    
    34   17   18 1    
    35   17   86 1    
    36   17   87 1    
    37   18   19 1    
    38   18   37 1    
    39   18   88 1    
    40   19   20 am   BACKBONE|DICT|INTERRES
    41   19   89 1    
    42   20   21 2    
    43   20   22 1    
    44   22   23 1    
    45   22   24 1    
    46   22   90 1    
    47   23   91 1    
    48   23   92 1    
    49   23   93 1    
    50   24   25 am   BACKBONE|DICT|INTERRES
    51   24   94 1    
    52   25   26 2    
    53   25   27 1    
    54   27   28 1    
    55   27   29 1    
    56   27   95 1    
    57   28   96 1    
    58   28   97 1    
    59   28   98 1    
    60   29   30 am   BACKBONE|DICT|INTERRES
    61   29   99 1    
    62   30   31 2    
    63   30   32 1    
    64   32   33 1    
    65   32   34 1    
    66   32  100 1    
    67   33  101 1    
    68   33  102 1    
    69   33  103 1    
    70   34   35 am   BACKBONE|DICT|INTERRES
    71   34  104 1    
    72   35   36 2    
    73   37   38 2    
    74   37   39 am   BACKBONE|DICT|INTERRES
    75   39   40 1    
    76   39  105 1    
    77   40   41 1    
    78   40   42 1    
    79   40  106 1    
    80   41  107 1    
    81   41  108 1    
    82   41  109 1    
    83   42   43 2    
    84   42   44 am   BACKBONE|DICT|INTERRES
    85   44   45 1    
    86   44  110 1    
    87   45   46 1    
    88   45   47 1    
    89   45  111 1    
    90   46  112 1    
    91   46  113 1    
    92   46  114 1    
    93   47   48 2    
    94   47   49 am   BACKBONE|DICT|INTERRES
    95   49   50 1    
    96   49  115 1    
    97   50   51 1    
    98   50   52 1    
    99   50  116 1    
   100   51  117 1    
   101   51  118 1    
   102   51  119 1    
   103   52   53 2    
   104   52   54 am   BACKBONE|DICT|INTERRES
   105   54   55 1    
   106   54  120 1    
   107   55   56 1    
   108   55   57 1    
   109   55  121 1    
   110   56  122 1    
   111   56  123 1    
   112   56  124 1    
   113   57   58 2    
   114   57   59 am   BACKBONE|DICT|INTERRES
   115   59   60 1    
   116   59  125 1    
   117   60   61 1    
   118   60   62 1    
   119   60  126 1    
   120   61  127 1    
   121   61  128 1    
   122   61  129 1    
   123   62   63 2    
   124   62   64 am   BACKBONE|DICT|INTERRES
   125   64   65 1    
   126   64  130 1    
   127   65   66 1    
   128   65   69 1    
   129   65  131 1    
   130   66   67 am   BACKBONE|DICT|INTERRES
   131   66   68 2    
   132   67  132 1    
   133   67  133 1    
   134   69   70 1    
   135   69  134 1    
   136   69  135 1    
   137   70   71 1    
   138   71  136 1    
   139   71  137 1    
@<TRIPOS>SUBSTRUCTURE
     1 UNK         1 GROUP             0       ****    0 ROOT    
