@<TRIPOS>MOLECULE
3R137
137   139    1
SMALL
USER_CHARGES


@<TRIPOS>ATOM
      1 CA         27.4952   -3.4375    3.5028 C.3       0 UNK        -0.2020 
      2 C          28.0226   -2.7961    2.2283 C.2       0 UNK         0.4855 
      3 O          28.8505   -1.8877    2.2973 O.2       0 UNK        -0.5197 
      4 N          27.5507   -3.2619    1.0644 N.am      1 UNK        -0.4892 
      5 CA         27.9564   -2.7732   -0.2612 C.3       1 UNK         0.0835 
      6 C6         27.5120   -3.7355   -1.3920 C.3       12 UNK        -0.0855 
      7 S7         28.1320   -5.4421   -1.1980 S.3       12 UNK        -0.2931 
      8 C8         29.8892   -5.2893   -1.6640 C.3       12 UNK         0.0378 
      9 C9         30.0850   -4.6261   -3.0207 C.ar      12 UNK        -0.0802 
     10 C10        30.6731   -3.3635   -3.1042 C.ar      12 UNK        -0.0944 
     11 C11        30.8552   -2.7336   -4.3384 C.ar      12 UNK        -0.0787 
     12 C12        30.4280   -3.3851   -5.5060 C.ar      12 UNK        -0.0862 
     13 C13        29.8310   -4.6532   -5.4362 C.ar      12 UNK        -0.0733 
     14 C14        29.6731   -5.2674   -4.1898 C.ar      12 UNK        -0.0832 
     15 C15        29.3709   -5.4060   -6.6842 C.3       12 UNK         0.0240 
     16 S16        28.5203   -4.3922   -7.9388 S.3       12 UNK        -0.2522 
     17 C17        27.1408   -3.6316   -7.0091 C.3       12 UNK        -0.0967 
     18 CA         26.7625   -2.2480   -7.5956 C.3       5 UNK         0.0660 
     19 N          25.4372   -1.7951   -7.1627 N.am      5 UNK        -0.4015 
     20 C          24.8412   -0.6644   -7.5742 C.2       4 UNK         0.4946 
     21 O          25.2911    0.0546   -8.4685 O.2       4 UNK        -0.5353 
     22 CA         23.5657   -0.2140   -6.8368 C.3       4 UNK         0.0277 
     23 CB         22.3285   -0.4844   -7.7080 C.3       4 UNK        -0.1981 
     24 N          23.3525   -0.7927   -5.5014 N.am      4 UNK        -0.4209 
     25 C          24.2079   -0.7655   -4.4679 C.2       3 UNK         0.4942 
     26 O          25.3579   -0.3238   -4.5364 O.2       3 UNK        -0.5208 
     27 CA         23.6990   -1.4167   -3.1693 C.3       3 UNK         0.0250 
     28 CB         23.6886   -2.9497   -3.3098 C.3       3 UNK        -0.1990 
     29 N          24.5059   -1.0709   -1.9989 N.am      3 UNK        -0.4232 
     30 C          24.6266    0.1426   -1.4417 C.2       2 UNK         0.4993 
     31 O          24.0080    1.1363   -1.8263 O.2       2 UNK        -0.5286 
     32 CA         25.5698    0.2644   -0.2257 C.3       2 UNK         0.0209 
     33 CB         24.7848    0.6650    1.0357 C.3       2 UNK        -0.1931 
     34 N          26.3070   -0.9740    0.0545 N.am      2 UNK        -0.4546 
     35 C          27.4334   -1.3534   -0.5666 C.2       1 UNK         0.5154 
     36 O          28.0321   -0.6501   -1.3795 O.2       1 UNK        -0.5181 
     37 C          27.8625   -1.1931   -7.3408 C.2       5 UNK         0.5014 
     38 O          28.7651   -1.0725   -8.1670 O.2       5 UNK        -0.5248 
     39 N          27.7444   -0.4034   -6.2605 N.am      6 UNK        -0.4434 
     40 CA         28.6641    0.6948   -5.9543 C.3       6 UNK         0.0363 
     41 CB         28.3124    1.3093   -4.5919 C.3       6 UNK        -0.1936 
     42 C          28.7166    1.7730   -7.0479 C.2       6 UNK         0.5081 
     43 O          29.8011    2.2704   -7.3534 O.2       6 UNK        -0.5248 
     44 N          27.5559    2.0794   -7.6415 N.am      7 UNK        -0.4718 
     45 CA         27.4320    2.9853   -8.7800 C.3       7 UNK         0.0273 
     46 CB         25.9998    3.5406   -8.8460 C.3       7 UNK        -0.1935 
     47 C          27.8136    2.2923  -10.0959 C.2       7 UNK         0.5018 
     48 O          28.5609    2.8738  -10.8819 O.2       7 UNK        -0.5186 
     49 N          27.3044    1.0695  -10.3116 N.am      8 UNK        -0.4240 
     50 CA         27.4888    0.3012  -11.5476 C.3       8 UNK         0.0235 
     51 CB         26.5615   -0.9238  -11.5474 C.3       8 UNK        -0.2000 
     52 C          28.9451   -0.1185  -11.8095 C.2       8 UNK         0.4941 
     53 O          29.4073    0.0024  -12.9447 O.2       8 UNK        -0.5273 
     54 N          29.6469   -0.5850  -10.7671 N.am      9 UNK        -0.4262 
     55 CA         31.0664   -0.9469  -10.8271 C.3       9 UNK         0.0264 
     56 CB         31.3660   -2.0147   -9.7605 C.3       9 UNK        -0.1955 
     57 C          31.9966    0.2656  -10.6442 C.2       9 UNK         0.5031 
     58 O          33.1957    0.1292  -10.8913 O.2       9 UNK        -0.5390 
     59 N          31.4401    1.4091  -10.2113 N.am      10 UNK        -0.4204 
     60 CA         32.1160    2.6675   -9.8780 C.3       10 UNK         0.0237 
     61 CB         32.6937    3.3337  -11.1450 C.3       10 UNK        -0.1985 
     62 C          33.1576    2.4725   -8.7607 C.2       10 UNK         0.4970 
     63 O          34.3412    2.7584   -8.9563 O.2       10 UNK        -0.4914 
     64 N          32.6911    1.9539   -7.6182 N.am      11 UNK        -0.4285 
     65 CA         33.5012    1.7023   -6.4186 C.3       11 UNK         0.1007 
     66 C          34.0680    3.0104   -5.7989 C.2       11 UNK         0.5703 
     67 N          35.2726    2.9630   -5.2458 N.am      11 UNK        -0.7361 
     68 O          33.4119    4.0506   -5.7762 O.2       11 UNK        -0.4986 
     69 C69        32.7080    0.9040   -5.3541 C.3       12 UNK        -0.0947 
     70 S70        32.2594   -0.7840   -5.8810 S.3       12 UNK        -0.2240 
     71 C71        31.4752   -1.3366   -4.3289 C.3       12 UNK         0.0194 
     72 H72        27.0053   -2.6888    4.1248 H         1 UNK         0.0906 
     73 H73        26.7755   -4.2290    3.2945 H         1 UNK         0.0906 
     74 H74        28.3172   -3.8692    4.0732 H         1 UNK         0.0906 
     75 H75        26.9020   -4.0371    1.0637 H         1 UNK         0.3140 
     76 H76        29.0466   -2.7103   -0.2741 H         1 UNK         0.1085 
     77 H77        26.4227   -3.7949   -1.4294 H         1 UNK         0.0836 
     78 H78        27.8144   -3.3556   -2.3699 H         1 UNK         0.0836 
     79 H79        30.3361   -6.2843   -1.6842 H         1 UNK         0.0731 
     80 H80        30.4152   -4.7384   -0.8827 H         1 UNK         0.0731 
     81 H81        30.9851   -2.8606   -2.1988 H         1 UNK         0.1312 
     82 H82        30.5468   -2.9071   -6.4686 H         1 UNK         0.1406 
     83 H83        29.2181   -6.2466   -4.1214 H         1 UNK         0.1631 
     84 H84        28.7025   -6.2243   -6.4115 H         1 UNK         0.0717 
     85 H85        30.2436   -5.8666   -7.1484 H         1 UNK         0.0717 
     86 H86        26.2921   -4.3143   -7.0736 H         1 UNK         0.0934 
     87 H87        27.3859   -3.5508   -5.9485 H         1 UNK         0.0934 
     88 H88        26.6858   -2.3655   -8.6766 H         1 UNK         0.0739 
     89 H89        24.9990   -2.3171   -6.4194 H         1 UNK         0.3093 
     90 H90        23.6547    0.8657   -6.7007 H         1 UNK         0.0818 
     91 H91        21.4290   -0.0536   -7.2679 H         1 UNK         0.0819 
     92 H92        22.4429   -0.0415   -8.6988 H         1 UNK         0.0819 
     93 H93        22.1582   -1.5527   -7.8471 H         1 UNK         0.0819 
     94 H94        22.4430   -1.2044   -5.3466 H         1 UNK         0.3041 
     95 H95        22.6803   -1.0669   -2.9882 H         1 UNK         0.0784 
     96 H96        23.0476   -3.2711   -4.1317 H         1 UNK         0.0793 
     97 H97        24.6874   -3.3446   -3.5026 H         1 UNK         0.0793 
     98 H98        23.3086   -3.4284   -2.4069 H         1 UNK         0.0793 
     99 H99        25.0676   -1.8112   -1.6109 H         1 UNK         0.3024 
    100 H100       26.2830    1.0602   -0.4539 H         1 UNK         0.1171 
    101 H101       25.4490    0.7998    1.8897 H         1 UNK         0.0786 
    102 H102       24.2581    1.6086    0.8864 H         1 UNK         0.0786 
    103 H103       24.0397   -0.0851    1.3036 H         1 UNK         0.0786 
    104 H104       25.8990   -1.6076    0.7275 H         1 UNK         0.2977 
    105 H105       26.9457   -0.5150   -5.6397 H         1 UNK         0.3127 
    106 H106       29.6604    0.2658   -5.8913 H         1 UNK         0.0770 
    107 H107       27.3106    1.7407   -4.5899 H         1 UNK         0.0814 
    108 H108       29.0132    2.1025   -4.3284 H         1 UNK         0.0814 
    109 H109       28.3542    0.5623   -3.7993 H         1 UNK         0.0814 
    110 H110       26.7258    1.5691   -7.3717 H         1 UNK         0.2983 
    111 H111       28.1135    3.8271   -8.6357 H         1 UNK         0.0947 
    112 H112       25.8895    4.2330   -9.6817 H         1 UNK         0.0806 
    113 H113       25.7455    4.0874   -7.9378 H         1 UNK         0.0806 
    114 H114       25.2602    2.7501   -8.9786 H         1 UNK         0.0806 
    115 H115       26.6765    0.6751   -9.6143 H         1 UNK         0.3000 
    116 H116       27.1834    0.9480  -12.3730 H         1 UNK         0.0850 
    117 H117       26.5929   -1.4332  -12.5114 H         1 UNK         0.0810 
    118 H118       25.5247   -0.6417  -11.3620 H         1 UNK         0.0810 
    119 H119       26.8542   -1.6494  -10.7906 H         1 UNK         0.0810 
    120 H120       29.1988   -0.6847   -9.8548 H         1 UNK         0.3040 
    121 H121       31.2808   -1.3817  -11.8057 H         1 UNK         0.0766 
    122 H122       31.2646   -1.6159   -8.7506 H         1 UNK         0.0812 
    123 H123       32.3862   -2.3877   -9.8580 H         1 UNK         0.0812 
    124 H124       30.6962   -2.8700   -9.8511 H         1 UNK         0.0812 
    125 H125       30.4424    1.4017  -10.0500 H         1 UNK         0.3205 
    126 H126       31.3497    3.3334   -9.4775 H         1 UNK         0.0754 
    127 H127       33.1203    4.3098  -10.9110 H         1 UNK         0.0769 
    128 H128       31.9188    3.4896  -11.8958 H         1 UNK         0.0769 
    129 H129       33.4837    2.7338  -11.5981 H         1 UNK         0.0769 
    130 H130       31.6883    1.8272   -7.5181 H         1 UNK         0.2981 
    131 H131       34.3504    1.0922   -6.7330 H         1 UNK         0.0541 
    132 H132       35.8147    2.1130   -5.2476 H         1 UNK         0.3459 
    133 H133       35.6511    3.7971   -4.8250 H         1 UNK         0.3459 
    134 H134       31.7973    1.4402   -5.0797 H         1 UNK         0.0612 
    135 H135       33.2958    0.8106   -4.4387 H         1 UNK         0.0612 
    136 H136       32.2352   -1.2902   -3.5471 H         1 UNK         0.0624 
    137 H137       30.7010   -0.6251   -4.0412 H         1 UNK         0.0624 
@<TRIPOS>BOND
     1    1    2 1    
     2    1   72 1    
     3    1   73 1    
     4    1   74 1    
     5    2    3 2    
     6    2    4 am   BACKBONE|DICT|INTERRES
     7    4    5 1    
     8    4   75 1    
     9    5    6 1    
    10    5   35 1    
    11    5   76 1    
    12    6    7 1    
    13    6   77 1    
    14    6   78 1    
    15    7    8 1    
    16    8    9 1    
    17    8   79 1    
    18    8   80 1    
    19    9   10 ar   
    20    9   14 ar   
    21   10   11 ar   
    22   10   81 1    
    23   11   12 ar   
    24   11   71 1    
    25   12   13 ar   
    26   12   82 1    
    27   13   14 ar   
    28   13   15 1    
    29   14   83 1    
    30   15   16 1    
    31   15   84 1    
    32   15   85 1    
    33   16   17 1    
    34   17   18 1    
    35   17   86 1    
    36   17   87 1    
    37   18   19 1    
    38   18   37 1    
    39   18   88 1    
    40   19   20 am   BACKBONE|DICT|INTERRES
    41   19   89 1    
    42   20   21 2    
    43   20   22 1    
    44   22   23 1    
    45   22   24 1    
    46   22   90 1    
    47   23   91 1    
    48   23   92 1    
    49   23   93 1    
    50   24   25 am   BACKBONE|DICT|INTERRES
    51   24   94 1    
    52   25   26 2    
    53   25   27 1    
    54   27   28 1    
    55   27   29 1    
    56   27   95 1    
    57   28   96 1    
    58   28   97 1    
    59   28   98 1    
    60   29   30 am   BACKBONE|DICT|INTERRES
    61   29   99 1    
    62   30   31 2    
    63   30   32 1    
    64   32   33 1    
    65   32   34 1    
    66   32  100 1    
    67   33  101 1    
    68   33  102 1    
    69   33  103 1    
    70   34   35 am   BACKBONE|DICT|INTERRES
    71   34  104 1    
    72   35   36 2    
    73   37   38 2    
    74   37   39 am   BACKBONE|DICT|INTERRES
    75   39   40 1    
    76   39  105 1    
    77   40   41 1    
    78   40   42 1    
    79   40  106 1    
    80   41  107 1    
    81   41  108 1    
    82   41  109 1    
    83   42   43 2    
    84   42   44 am   BACKBONE|DICT|INTERRES
    85   44   45 1    
    86   44  110 1    
    87   45   46 1    
    88   45   47 1    
    89   45  111 1    
    90   46  112 1    
    91   46  113 1    
    92   46  114 1    
    93   47   48 2    
    94   47   49 am   BACKBONE|DICT|INTERRES
    95   49   50 1    
    96   49  115 1    
    97   50   51 1    
    98   50   52 1    
    99   50  116 1    
   100   51  117 1    
   101   51  118 1    
   102   51  119 1    
   103   52   53 2    
   104   52   54 am   BACKBONE|DICT|INTERRES
   105   54   55 1    
   106   54  120 1    
   107   55   56 1    
   108   55   57 1    
   109   55  121 1    
   110   56  122 1    
   111   56  123 1    
   112   56  124 1    
   113   57   58 2    
   114   57   59 am   BACKBONE|DICT|INTERRES
   115   59   60 1    
   116   59  125 1    
   117   60   61 1    
   118   60   62 1    
   119   60  126 1    
   120   61  127 1    
   121   61  128 1    
   122   61  129 1    
   123   62   63 2    
   124   62   64 am   BACKBONE|DICT|INTERRES
   125   64   65 1    
   126   64  130 1    
   127   65   66 1    
   128   65   69 1    
   129   65  131 1    
   130   66   67 am   BACKBONE|DICT|INTERRES
   131   66   68 2    
   132   67  132 1    
   133   67  133 1    
   134   69   70 1    
   135   69  134 1    
   136   69  135 1    
   137   70   71 1    
   138   71  136 1    
   139   71  137 1    
@<TRIPOS>SUBSTRUCTURE
     1 UNK         1 GROUP             0       ****    0 ROOT    
