@<TRIPOS>MOLECULE
3R137
137   139    1
SMALL
USER_CHARGES


@<TRIPOS>ATOM
      1 CA         25.2991   -6.4652   -4.2257 C.3       0 UNK        -0.2020 
      2 C          25.6355   -5.5786   -3.0367 C.2       0 UNK         0.4855 
      3 O          24.7296   -5.0521   -2.3897 O.2       0 UNK        -0.5197 
      4 N          26.9328   -5.3984   -2.7542 N.am      1 UNK        -0.4892 
      5 CA         27.4736   -4.5536   -1.6826 C.3       1 UNK         0.0835 
      6 C6         29.0141   -4.6900   -1.6135 C.3       12 UNK        -0.0855 
      7 S7         29.7043   -4.0411   -0.0577 S.3       12 UNK        -0.2931 
      8 C8         31.4098   -3.6503   -0.5699 C.3       12 UNK         0.0378 
      9 C9         31.5033   -2.4342   -1.4868 C.ar      12 UNK        -0.0802 
     10 C10        32.1688   -2.5244   -2.7139 C.ar      12 UNK        -0.0944 
     11 C11        32.3365   -1.3960   -3.5247 C.ar      12 UNK        -0.0787 
     12 C12        31.8205   -0.1668   -3.0940 C.ar      12 UNK        -0.0862 
     13 C13        31.1289   -0.0662   -1.8818 C.ar      12 UNK        -0.0733 
     14 C14        30.9810   -1.2028   -1.0819 C.ar      12 UNK        -0.0832 
     15 C15        30.5711    1.2702   -1.4017 C.3       12 UNK         0.0240 
     16 S16        29.5738    2.1485   -2.6514 S.3       12 UNK        -0.2522 
     17 C17        28.2650    0.9388   -3.0465 C.3       12 UNK        -0.0967 
     18 CA         28.1288    0.7247   -4.5762 C.3       5 UNK         0.0660 
     19 N          27.6465   -0.6257   -4.8994 N.am      5 UNK        -0.4015 
     20 C          27.4442   -1.1285   -6.1282 C.2       4 UNK         0.4946 
     21 O          27.6656   -0.5108   -7.1674 O.2       4 UNK        -0.5353 
     22 CA         26.8290   -2.5337   -6.2129 C.3       4 UNK         0.0277 
     23 CB         27.8710   -3.6318   -5.9369 C.3       4 UNK        -0.1981 
     24 N          25.7087   -2.6515   -5.2794 N.am      4 UNK        -0.4209 
     25 C          24.4752   -2.1848   -5.5262 C.2       3 UNK         0.4942 
     26 O          24.1184   -1.7450   -6.6187 O.2       3 UNK        -0.5208 
     27 CA         23.4704   -2.1796   -4.3599 C.3       3 UNK         0.0250 
     28 CB         22.5139   -3.3788   -4.4553 C.3       3 UNK        -0.1990 
     29 N          24.1180   -2.1647   -3.0448 N.am      3 UNK        -0.4232 
     30 C          24.7424   -1.0933   -2.5312 C.2       2 UNK         0.4993 
     31 O          24.8062   -0.0043   -3.1021 O.2       2 UNK        -0.5286 
     32 CA         25.4755   -1.2838   -1.1896 C.3       2 UNK         0.0209 
     33 CB         24.5197   -1.0363   -0.0123 C.3       2 UNK        -0.1931 
     34 N          26.1004   -2.6045   -1.0473 N.am      2 UNK        -0.4546 
     35 C          27.0335   -3.0888   -1.8784 C.2       1 UNK         0.5154 
     36 O          27.4864   -2.4479   -2.8267 O.2       1 UNK        -0.5181 
     37 C          27.2798    1.8419   -5.2216 C.2       5 UNK         0.5014 
     38 O          27.8301    2.8569   -5.6500 O.2       5 UNK        -0.5248 
     39 N          25.9628    1.6150   -5.3370 N.am      6 UNK        -0.4434 
     40 CA         25.0108    2.4699   -6.0529 C.3       6 UNK         0.0363 
     41 CB         23.5971    1.8899   -5.8881 C.3       6 UNK        -0.1936 
     42 C          25.3325    2.6877   -7.5477 C.2       6 UNK         0.5081 
     43 O          24.8750    3.6821   -8.1113 O.2       6 UNK        -0.5248 
     44 N          26.1204    1.7913   -8.1613 N.am      7 UNK        -0.4718 
     45 CA         26.6246    1.9179   -9.5323 C.3       7 UNK         0.0273 
     46 CB         26.6974    0.5194  -10.1698 C.3       7 UNK        -0.1935 
     47 C          27.9873    2.6403   -9.6035 C.2       7 UNK         0.5018 
     48 O          28.5809    2.6850  -10.6830 O.2       7 UNK        -0.5186 
     49 N          28.4649    3.1926   -8.4764 N.am      8 UNK        -0.4240 
     50 CA         29.7227    3.9259   -8.3072 C.3       8 UNK         0.0235 
     51 CB         29.6880    5.2654   -9.0799 C.3       8 UNK        -0.2000 
     52 C          30.9362    3.0329   -8.6206 C.2       8 UNK         0.4941 
     53 O          31.0565    1.9625   -8.0267 O.2       8 UNK        -0.5273 
     54 N          31.8046    3.4623   -9.5473 N.am      9 UNK        -0.4262 
     55 CA         33.0317    2.7662   -9.9556 C.3       9 UNK         0.0264 
     56 CB         33.8042    3.6545  -10.9447 C.3       9 UNK        -0.1955 
     57 C          32.8183    1.3595  -10.5503 C.2       9 UNK         0.5031 
     58 O          33.7688    0.5771  -10.5897 O.2       9 UNK        -0.5390 
     59 N          31.5894    1.0492  -10.9850 N.am      10 UNK        -0.4204 
     60 CA         31.1886   -0.2613  -11.4984 C.3       10 UNK         0.0237 
     61 CB         29.9593   -0.0848  -12.4054 C.3       10 UNK        -0.1985 
     62 C          30.9308   -1.3171  -10.4017 C.2       10 UNK         0.4970 
     63 O          30.5507   -2.4356  -10.7512 O.2       10 UNK        -0.4914 
     64 N          31.1264   -0.9778   -9.1170 N.am      11 UNK        -0.4285 
     65 CA         30.9525   -1.8920   -7.9744 C.3       11 UNK         0.1007 
     66 C          31.8706   -3.1508   -7.9533 C.2       11 UNK         0.5703 
     67 N          32.9832   -3.1740   -8.6784 N.am      11 UNK        -0.7361 
     68 O          31.5606   -4.1233   -7.2700 O.2       11 UNK        -0.4986 
     69 C69        30.9818   -1.1378   -6.6190 C.3       12 UNK        -0.0947 
     70 S70        32.6021   -0.4222   -6.1755 S.3       12 UNK        -0.2240 
     71 C71        33.1366   -1.5256   -4.8223 C.3       12 UNK         0.0194 
     72 H72        26.1700   -7.0136   -4.5839 H         1 UNK         0.0906 
     73 H73        24.5348   -7.1908   -3.9486 H         1 UNK         0.0906 
     74 H74        24.9154   -5.8620   -5.0479 H         1 UNK         0.0906 
     75 H75        27.6242   -5.8512   -3.3348 H         1 UNK         0.3140 
     76 H76        27.0542   -4.9221   -0.7438 H         1 UNK         0.1085 
     77 H77        29.4886   -4.2025   -2.4681 H         1 UNK         0.0836 
     78 H78        29.2996   -5.7416   -1.6722 H         1 UNK         0.0836 
     79 H79        31.8483   -4.5313   -1.0414 H         1 UNK         0.0731 
     80 H80        32.0047   -3.4554    0.3234 H         1 UNK         0.0731 
     81 H81        32.5864   -3.4718   -3.0265 H         1 UNK         0.1312 
     82 H82        31.9580    0.7192   -3.6980 H         1 UNK         0.1406 
     83 H83        30.4708   -1.1310   -0.1308 H         1 UNK         0.1631 
     84 H84        31.4038    1.9101   -1.1074 H         1 UNK         0.0717 
     85 H85        29.9574    1.1354   -0.5095 H         1 UNK         0.0717 
     86 H86        28.5093   -0.0041   -2.5566 H         1 UNK         0.0934 
     87 H87        27.3244    1.2639   -2.5974 H         1 UNK         0.0934 
     88 H88        29.1234    0.7901   -5.0201 H         1 UNK         0.0739 
     89 H89        27.4958   -1.2448   -4.1035 H         1 UNK         0.3093 
     90 H90        26.4568   -2.6781   -7.2299 H         1 UNK         0.0818 
     91 H91        28.3792   -3.4967   -4.9826 H         1 UNK         0.0819 
     92 H92        27.4131   -4.6207   -5.9363 H         1 UNK         0.0819 
     93 H93        28.6398   -3.6387   -6.7087 H         1 UNK         0.0819 
     94 H94        25.9354   -2.9438   -4.3386 H         1 UNK         0.3041 
     95 H95        22.8744   -1.2687   -4.4524 H         1 UNK         0.0784 
     96 H96        21.9793   -3.3748   -5.4063 H         1 UNK         0.0793 
     97 H97        23.0420   -4.3290   -4.3848 H         1 UNK         0.0793 
     98 H98        21.7648   -3.3524   -3.6638 H         1 UNK         0.0793 
     99 H99        24.1563   -3.0467   -2.5429 H         1 UNK         0.3024 
    100 H100       26.2710   -0.5370   -1.1461 H         1 UNK         0.1171 
    101 H101       25.0465   -1.0734    0.9414 H         1 UNK         0.0786 
    102 H102       24.0572   -0.0509   -0.0865 H         1 UNK         0.0786 
    103 H103       23.7155   -1.7726    0.0181 H         1 UNK         0.0786 
    104 H104       25.7412   -3.2016   -0.3158 H         1 UNK         0.2977 
    105 H105       25.5780    0.8008   -4.8696 H         1 UNK         0.3127 
    106 H106       25.0360    3.4504   -5.5734 H         1 UNK         0.0770 
    107 H107       23.5118    0.9044   -6.3468 H         1 UNK         0.0814 
    108 H108       22.8532    2.5338   -6.3591 H         1 UNK         0.0814 
    109 H109       23.3245    1.7959   -4.8366 H         1 UNK         0.0814 
    110 H110       26.4916    1.0067   -7.6309 H         1 UNK         0.2983 
    111 H111       25.9210    2.5117  -10.1196 H         1 UNK         0.0947 
    112 H112       26.8565    0.5938  -11.2457 H         1 UNK         0.0806 
    113 H113       25.7719   -0.0370  -10.0213 H         1 UNK         0.0806 
    114 H114       27.5154   -0.0727   -9.7576 H         1 UNK         0.0806 
    115 H115       27.9531    3.0351   -7.6131 H         1 UNK         0.3000 
    116 H116       29.7937    4.1614   -7.2442 H         1 UNK         0.0850 
    117 H117       30.5745    5.8660   -8.8719 H         1 UNK         0.0810 
    118 H118       28.8268    5.8626   -8.7799 H         1 UNK         0.0810 
    119 H119       29.6247    5.1227  -10.1593 H         1 UNK         0.0810 
    120 H120       31.6140    4.3439  -10.0013 H         1 UNK         0.3040 
    121 H121       33.6437    2.6393   -9.0602 H         1 UNK         0.0766 
    122 H122       34.0582    4.6174  -10.5012 H         1 UNK         0.0812 
    123 H123       33.2292    3.8419  -11.8525 H         1 UNK         0.0812 
    124 H124       34.7412    3.1828  -11.2448 H         1 UNK         0.0812 
    125 H125       30.8567    1.7418  -10.8916 H         1 UNK         0.3205 
    126 H126       32.0008   -0.6489  -12.1172 H         1 UNK         0.0754 
    127 H127       29.6660   -1.0298  -12.8646 H         1 UNK         0.0769 
    128 H128       30.1600    0.6172  -13.2150 H         1 UNK         0.0769 
    129 H129       29.1019    0.2861  -11.8465 H         1 UNK         0.0769 
    130 H130       31.3974   -0.0299   -8.8829 H         1 UNK         0.2981 
    131 H131       29.9396   -2.2815   -8.0835 H         1 UNK         0.0541 
    132 H132       33.2481   -2.3729   -9.2292 H         1 UNK         0.3459 
    133 H133       33.5677   -3.9943   -8.6621 H         1 UNK         0.3459 
    134 H134       30.2750   -0.3107   -6.6592 H         1 UNK         0.0612 
    135 H135       30.6310   -1.7856   -5.8137 H         1 UNK         0.0612 
    136 H136       34.1818   -1.3088   -4.5995 H         1 UNK         0.0624 
    137 H137       33.1067   -2.5541   -5.1852 H         1 UNK         0.0624 
@<TRIPOS>BOND
     1    1    2 1    
     2    1   72 1    
     3    1   73 1    
     4    1   74 1    
     5    2    3 2    
     6    2    4 am   BACKBONE|DICT|INTERRES
     7    4    5 1    
     8    4   75 1    
     9    5    6 1    
    10    5   35 1    
    11    5   76 1    
    12    6    7 1    
    13    6   77 1    
    14    6   78 1    
    15    7    8 1    
    16    8    9 1    
    17    8   79 1    
    18    8   80 1    
    19    9   10 ar   
    20    9   14 ar   
    21   10   11 ar   
    22   10   81 1    
    23   11   12 ar   
    24   11   71 1    
    25   12   13 ar   
    26   12   82 1    
    27   13   14 ar   
    28   13   15 1    
    29   14   83 1    
    30   15   16 1    
    31   15   84 1    
    32   15   85 1    
    33   16   17 1    
    34   17   18 1    
    35   17   86 1    
    36   17   87 1    
    37   18   19 1    
    38   18   37 1    
    39   18   88 1    
    40   19   20 am   BACKBONE|DICT|INTERRES
    41   19   89 1    
    42   20   21 2    
    43   20   22 1    
    44   22   23 1    
    45   22   24 1    
    46   22   90 1    
    47   23   91 1    
    48   23   92 1    
    49   23   93 1    
    50   24   25 am   BACKBONE|DICT|INTERRES
    51   24   94 1    
    52   25   26 2    
    53   25   27 1    
    54   27   28 1    
    55   27   29 1    
    56   27   95 1    
    57   28   96 1    
    58   28   97 1    
    59   28   98 1    
    60   29   30 am   BACKBONE|DICT|INTERRES
    61   29   99 1    
    62   30   31 2    
    63   30   32 1    
    64   32   33 1    
    65   32   34 1    
    66   32  100 1    
    67   33  101 1    
    68   33  102 1    
    69   33  103 1    
    70   34   35 am   BACKBONE|DICT|INTERRES
    71   34  104 1    
    72   35   36 2    
    73   37   38 2    
    74   37   39 am   BACKBONE|DICT|INTERRES
    75   39   40 1    
    76   39  105 1    
    77   40   41 1    
    78   40   42 1    
    79   40  106 1    
    80   41  107 1    
    81   41  108 1    
    82   41  109 1    
    83   42   43 2    
    84   42   44 am   BACKBONE|DICT|INTERRES
    85   44   45 1    
    86   44  110 1    
    87   45   46 1    
    88   45   47 1    
    89   45  111 1    
    90   46  112 1    
    91   46  113 1    
    92   46  114 1    
    93   47   48 2    
    94   47   49 am   BACKBONE|DICT|INTERRES
    95   49   50 1    
    96   49  115 1    
    97   50   51 1    
    98   50   52 1    
    99   50  116 1    
   100   51  117 1    
   101   51  118 1    
   102   51  119 1    
   103   52   53 2    
   104   52   54 am   BACKBONE|DICT|INTERRES
   105   54   55 1    
   106   54  120 1    
   107   55   56 1    
   108   55   57 1    
   109   55  121 1    
   110   56  122 1    
   111   56  123 1    
   112   56  124 1    
   113   57   58 2    
   114   57   59 am   BACKBONE|DICT|INTERRES
   115   59   60 1    
   116   59  125 1    
   117   60   61 1    
   118   60   62 1    
   119   60  126 1    
   120   61  127 1    
   121   61  128 1    
   122   61  129 1    
   123   62   63 2    
   124   62   64 am   BACKBONE|DICT|INTERRES
   125   64   65 1    
   126   64  130 1    
   127   65   66 1    
   128   65   69 1    
   129   65  131 1    
   130   66   67 am   BACKBONE|DICT|INTERRES
   131   66   68 2    
   132   67  132 1    
   133   67  133 1    
   134   69   70 1    
   135   69  134 1    
   136   69  135 1    
   137   70   71 1    
   138   71  136 1    
   139   71  137 1    
@<TRIPOS>SUBSTRUCTURE
     1 UNK         1 GROUP             0       ****    0 ROOT    
