@<TRIPOS>MOLECULE
3R137
137   139    1
SMALL
USER_CHARGES


@<TRIPOS>ATOM
      1 CA         31.2475   -4.3000   -0.3202 C.3       0 UNK        -0.2020 
      2 C          29.9015   -4.4355    0.3747 C.2       0 UNK         0.4855 
      3 O          29.7135   -5.3468    1.1803 O.2       0 UNK        -0.5197 
      4 N          28.9628   -3.5316    0.0676 N.am      1 UNK        -0.4892 
      5 CA         27.6214   -3.4577    0.6665 C.3       1 UNK         0.0835 
      6 C6         26.9323   -2.0919    0.4070 C.3       12 UNK        -0.0855 
      7 S7         27.9928   -0.6452    0.7555 S.3       12 UNK        -0.2931 
      8 C8         28.1807    0.0827   -0.9053 C.3       12 UNK         0.0378 
      9 C9         29.2046   -0.6617   -1.7528 C.ar      12 UNK        -0.0802 
     10 C10        30.5306   -0.2220   -1.8003 C.ar      12 UNK        -0.0944 
     11 C11        31.4648   -0.8687   -2.6153 C.ar      12 UNK        -0.0787 
     12 C12        31.0712   -1.9819   -3.3633 C.ar      12 UNK        -0.0862 
     13 C13        29.7417   -2.4102   -3.3536 C.ar      12 UNK        -0.0733 
     14 C14        28.8193   -1.7535   -2.5355 C.ar      12 UNK        -0.0832 
     15 C15        29.2935   -3.5270   -4.2909 C.3       12 UNK         0.0240 
     16 S16        27.9381   -3.0313   -5.4186 S.3       12 UNK        -0.2522 
     17 C17        28.4708   -1.3887   -6.0299 C.3       12 UNK        -0.0967 
     18 CA         27.3091   -0.4592   -6.4781 C.3       5 UNK         0.0660 
     19 N          26.1899   -0.4566   -5.5210 N.am      5 UNK        -0.4015 
     20 C          24.9214   -0.1139   -5.7845 C.2       4 UNK         0.4946 
     21 O          24.5477    0.3021   -6.8838 O.2       4 UNK        -0.5353 
     22 CA         23.9026   -0.2850   -4.6408 C.3       4 UNK         0.0277 
     23 CB         22.5627    0.4156   -4.9354 C.3       4 UNK        -0.1981 
     24 N          23.6519   -1.7050   -4.3844 N.am      4 UNK        -0.4209 
     25 C          24.4654   -2.4953   -3.6757 C.2       3 UNK         0.4942 
     26 O          25.4644   -2.0760   -3.0857 O.2       3 UNK        -0.5208 
     27 CA         24.1345   -3.9937   -3.6478 C.3       3 UNK         0.0250 
     28 CB         24.1534   -4.5993   -5.0674 C.3       3 UNK        -0.1990 
     29 N          25.1262   -4.6589   -2.8080 N.am      3 UNK        -0.4232 
     30 C          25.0424   -5.8867   -2.2847 C.2       2 UNK         0.4993 
     31 O          24.0718   -6.6304   -2.4325 O.2       2 UNK        -0.5286 
     32 CA         26.2502   -6.3804   -1.4679 C.3       2 UNK         0.0209 
     33 CB         27.1728   -7.2396   -2.3485 C.3       2 UNK        -0.1931 
     34 N          27.0358   -5.2920   -0.8785 N.am      2 UNK        -0.4546 
     35 C          26.6853   -4.6027    0.2170 C.2       1 UNK         0.5154 
     36 O          25.6582   -4.8287    0.8586 O.2       1 UNK        -0.5181 
     37 C          27.8143    0.9736   -6.7947 C.2       5 UNK         0.5014 
     38 O          29.0151    1.2438   -6.6864 O.2       5 UNK        -0.5248 
     39 N          26.8810    1.8642   -7.1600 N.am      6 UNK        -0.4434 
     40 CA         27.0656    3.2841   -7.4793 C.3       6 UNK         0.0363 
     41 CB         25.6800    3.8990   -7.7443 C.3       6 UNK        -0.1936 
     42 C          28.0081    3.5286   -8.6707 C.2       6 UNK         0.5081 
     43 O          28.4069    2.5778   -9.3402 O.2       6 UNK        -0.5248 
     44 N          28.3343    4.8023   -8.9313 N.am      7 UNK        -0.4718 
     45 CA         29.3500    5.2926   -9.8808 C.3       7 UNK         0.0273 
     46 CB         29.2774    6.8277   -9.9298 C.3       7 UNK        -0.1935 
     47 C          29.3372    4.7174  -11.3143 C.2       7 UNK         0.5018 
     48 O          30.3750    4.7606  -11.9753 O.2       7 UNK        -0.5186 
     49 N          28.1983    4.1761  -11.7685 N.am      8 UNK        -0.4240 
     50 CA         28.0842    3.4103  -13.0151 C.3       8 UNK         0.0235 
     51 CB         26.5985    3.1783  -13.3343 C.3       8 UNK        -0.2000 
     52 C          28.8438    2.0673  -12.9732 C.2       8 UNK         0.4941 
     53 O          29.3602    1.6360  -14.0047 O.2       8 UNK        -0.5273 
     54 N          28.9022    1.4436  -11.7894 N.am      9 UNK        -0.4262 
     55 CA         29.6752    0.2376  -11.4896 C.3       9 UNK         0.0264 
     56 CB         28.8127   -0.7221  -10.6518 C.3       9 UNK        -0.1955 
     57 C          30.9678    0.5796  -10.7305 C.2       9 UNK         0.5031 
     58 O          31.9772   -0.0902  -10.9483 O.2       9 UNK        -0.5390 
     59 N          30.9102    1.5952   -9.8528 N.am      10 UNK        -0.4204 
     60 CA         31.9894    2.1458   -9.0226 C.3       10 UNK         0.0237 
     61 CB         32.9944    2.9216   -9.8995 C.3       10 UNK        -0.1985 
     62 C          32.6587    1.0664   -8.1533 C.2       10 UNK         0.4970 
     63 O          33.8412    0.7724   -8.3369 O.2       10 UNK        -0.4914 
     64 N          31.8581    0.4584   -7.2688 N.am      11 UNK        -0.4285 
     65 CA         32.1889   -0.7307   -6.4624 C.3       11 UNK         0.1007 
     66 C          32.2897   -2.0651   -7.2637 C.2       11 UNK         0.5703 
     67 N          32.1531   -2.0848   -8.5844 N.am      11 UNK        -0.7361 
     68 O          32.4515   -3.1238   -6.6624 O.2       11 UNK        -0.4986 
     69 C69        33.4000   -0.5419   -5.4979 C.3       12 UNK        -0.0947 
     70 S70        33.1085    0.7054   -4.1976 S.3       12 UNK        -0.2240 
     71 C71        32.8875   -0.3387   -2.7158 C.3       12 UNK         0.0194 
     72 H72        31.3710   -3.3164   -0.7723 H         1 UNK         0.0906 
     73 H73        32.0573   -4.4420    0.3948 H         1 UNK         0.0906 
     74 H74        31.3458   -5.0524   -1.1021 H         1 UNK         0.0906 
     75 H75        29.1909   -2.7772   -0.5676 H         1 UNK         0.3140 
     76 H76        27.7460   -3.5657    1.7464 H         1 UNK         0.1085 
     77 H77        26.0461   -2.0028    1.0386 H         1 UNK         0.0836 
     78 H78        26.5597   -2.0307   -0.6157 H         1 UNK         0.0836 
     79 H79        28.4855    1.1243   -0.7926 H         1 UNK         0.0731 
     80 H80        27.2148    0.1101   -1.4129 H         1 UNK         0.0731 
     81 H81        30.8301    0.6405   -1.2204 H         1 UNK         0.1312 
     82 H82        31.7900   -2.4837   -3.9955 H         1 UNK         0.1406 
     83 H83        27.7922   -2.0778   -2.5389 H         1 UNK         0.1631 
     84 H84        28.9663   -4.3822   -3.6989 H         1 UNK         0.0717 
     85 H85        30.1300   -3.8759   -4.8987 H         1 UNK         0.0717 
     86 H86        29.0412   -0.8849   -5.2511 H         1 UNK         0.0934 
     87 H87        29.1623   -1.5471   -6.8591 H         1 UNK         0.0934 
     88 H88        26.9267   -0.8623   -7.4183 H         1 UNK         0.0739 
     89 H89        26.3898   -0.8420   -4.6055 H         1 UNK         0.3093 
     90 H90        24.3273    0.1767   -3.7463 H         1 UNK         0.0818 
     91 H91        22.7130    1.4790   -5.1271 H         1 UNK         0.0819 
     92 H92        22.0664   -0.0061   -5.8104 H         1 UNK         0.0819 
     93 H93        21.8788    0.3339   -4.0904 H         1 UNK         0.0819 
     94 H94        22.8648   -2.1178   -4.8643 H         1 UNK         0.3041 
     95 H95        23.1464   -4.1185   -3.2004 H         1 UNK         0.0784 
     96 H96        23.4033   -4.1387   -5.7107 H         1 UNK         0.0793 
     97 H97        25.1237   -4.4638   -5.5471 H         1 UNK         0.0793 
     98 H98        23.9390   -5.6678   -5.0501 H         1 UNK         0.0793 
     99 H99        25.9283   -4.0790   -2.5973 H         1 UNK         0.3024 
    100 H100       25.8634   -7.0074   -0.6609 H         1 UNK         0.1171 
    101 H101       27.5902   -6.6668   -3.1778 H         1 UNK         0.0786 
    102 H102       28.0017   -7.6512   -1.7720 H         1 UNK         0.0786 
    103 H103       26.6284   -8.0824   -2.7769 H         1 UNK         0.0786 
    104 H104       27.9108   -5.0575   -1.3235 H         1 UNK         0.2977 
    105 H105       25.9310    1.5068   -7.2322 H         1 UNK         0.3127 
    106 H106       27.5080    3.7630   -6.6038 H         1 UNK         0.0770 
    107 H107       25.2052    3.4551   -8.6205 H         1 UNK         0.0814 
    108 H108       25.7418    4.9742   -7.9159 H         1 UNK         0.0814 
    109 H109       25.0127    3.7518   -6.8947 H         1 UNK         0.0814 
    110 H110       27.9230    5.5126   -8.3423 H         1 UNK         0.2983 
    111 H111       30.3190    5.0184   -9.4586 H         1 UNK         0.0947 
    112 H112       30.0371    7.2370  -10.5979 H         1 UNK         0.0806 
    113 H113       29.4479    7.2672   -8.9469 H         1 UNK         0.0806 
    114 H114       28.3074    7.1727  -10.2901 H         1 UNK         0.0806 
    115 H115       27.3952    4.1832  -11.1568 H         1 UNK         0.3000 
    116 H116       28.5180    4.0086  -13.8195 H         1 UNK         0.0850 
    117 H117       26.1025    2.5992  -12.5541 H         1 UNK         0.0810 
    118 H118       26.4825    2.6301  -14.2705 H         1 UNK         0.0810 
    119 H119       26.0639    4.1219  -13.4450 H         1 UNK         0.0810 
    120 H120       28.4821    1.9050  -10.9843 H         1 UNK         0.3040 
    121 H121       29.9530   -0.2699  -12.4158 H         1 UNK         0.0766 
    122 H122       28.5004   -0.2694   -9.7098 H         1 UNK         0.0812 
    123 H123       27.9147   -1.0200  -11.1930 H         1 UNK         0.0812 
    124 H124       29.3631   -1.6325  -10.4100 H         1 UNK         0.0812 
    125 H125       29.9906    2.0058   -9.6860 H         1 UNK         0.3205 
    126 H126       31.5255    2.8580   -8.3382 H         1 UNK         0.0754 
    127 H127       33.7687    3.3865   -9.2881 H         1 UNK         0.0769 
    128 H128       32.5012    3.7168  -10.4583 H         1 UNK         0.0769 
    129 H129       33.4929    2.2699  -10.6180 H         1 UNK         0.0769 
    130 H130       30.8970    0.7781   -7.1825 H         1 UNK         0.2981 
    131 H131       31.3096   -0.8690   -5.8384 H         1 UNK         0.0541 
    132 H132       32.2090   -2.9698   -9.0622 H         1 UNK         0.3459 
    133 H133       32.0839   -1.2313   -9.1224 H         1 UNK         0.3459 
    134 H134       34.2965   -0.2564   -6.0477 H         1 UNK         0.0612 
    135 H135       33.6611   -1.4826   -5.0121 H         1 UNK         0.0612 
    136 H136       33.6024   -1.1626   -2.7186 H         1 UNK         0.0624 
    137 H137       33.1241    0.2600   -1.8350 H         1 UNK         0.0624 
@<TRIPOS>BOND
     1    1    2 1    
     2    1   72 1    
     3    1   73 1    
     4    1   74 1    
     5    2    3 2    
     6    2    4 am   BACKBONE|DICT|INTERRES
     7    4    5 1    
     8    4   75 1    
     9    5    6 1    
    10    5   35 1    
    11    5   76 1    
    12    6    7 1    
    13    6   77 1    
    14    6   78 1    
    15    7    8 1    
    16    8    9 1    
    17    8   79 1    
    18    8   80 1    
    19    9   10 ar   
    20    9   14 ar   
    21   10   11 ar   
    22   10   81 1    
    23   11   12 ar   
    24   11   71 1    
    25   12   13 ar   
    26   12   82 1    
    27   13   14 ar   
    28   13   15 1    
    29   14   83 1    
    30   15   16 1    
    31   15   84 1    
    32   15   85 1    
    33   16   17 1    
    34   17   18 1    
    35   17   86 1    
    36   17   87 1    
    37   18   19 1    
    38   18   37 1    
    39   18   88 1    
    40   19   20 am   BACKBONE|DICT|INTERRES
    41   19   89 1    
    42   20   21 2    
    43   20   22 1    
    44   22   23 1    
    45   22   24 1    
    46   22   90 1    
    47   23   91 1    
    48   23   92 1    
    49   23   93 1    
    50   24   25 am   BACKBONE|DICT|INTERRES
    51   24   94 1    
    52   25   26 2    
    53   25   27 1    
    54   27   28 1    
    55   27   29 1    
    56   27   95 1    
    57   28   96 1    
    58   28   97 1    
    59   28   98 1    
    60   29   30 am   BACKBONE|DICT|INTERRES
    61   29   99 1    
    62   30   31 2    
    63   30   32 1    
    64   32   33 1    
    65   32   34 1    
    66   32  100 1    
    67   33  101 1    
    68   33  102 1    
    69   33  103 1    
    70   34   35 am   BACKBONE|DICT|INTERRES
    71   34  104 1    
    72   35   36 2    
    73   37   38 2    
    74   37   39 am   BACKBONE|DICT|INTERRES
    75   39   40 1    
    76   39  105 1    
    77   40   41 1    
    78   40   42 1    
    79   40  106 1    
    80   41  107 1    
    81   41  108 1    
    82   41  109 1    
    83   42   43 2    
    84   42   44 am   BACKBONE|DICT|INTERRES
    85   44   45 1    
    86   44  110 1    
    87   45   46 1    
    88   45   47 1    
    89   45  111 1    
    90   46  112 1    
    91   46  113 1    
    92   46  114 1    
    93   47   48 2    
    94   47   49 am   BACKBONE|DICT|INTERRES
    95   49   50 1    
    96   49  115 1    
    97   50   51 1    
    98   50   52 1    
    99   50  116 1    
   100   51  117 1    
   101   51  118 1    
   102   51  119 1    
   103   52   53 2    
   104   52   54 am   BACKBONE|DICT|INTERRES
   105   54   55 1    
   106   54  120 1    
   107   55   56 1    
   108   55   57 1    
   109   55  121 1    
   110   56  122 1    
   111   56  123 1    
   112   56  124 1    
   113   57   58 2    
   114   57   59 am   BACKBONE|DICT|INTERRES
   115   59   60 1    
   116   59  125 1    
   117   60   61 1    
   118   60   62 1    
   119   60  126 1    
   120   61  127 1    
   121   61  128 1    
   122   61  129 1    
   123   62   63 2    
   124   62   64 am   BACKBONE|DICT|INTERRES
   125   64   65 1    
   126   64  130 1    
   127   65   66 1    
   128   65   69 1    
   129   65  131 1    
   130   66   67 am   BACKBONE|DICT|INTERRES
   131   66   68 2    
   132   67  132 1    
   133   67  133 1    
   134   69   70 1    
   135   69  134 1    
   136   69  135 1    
   137   70   71 1    
   138   71  136 1    
   139   71  137 1    
@<TRIPOS>SUBSTRUCTURE
     1 UNK         1 GROUP             0       ****    0 ROOT    
