@<TRIPOS>MOLECULE
3R137
137   139    1
SMALL
USER_CHARGES


@<TRIPOS>ATOM
      1 CA         28.9674    1.0316    1.8981 C.3       0 UNK        -0.2020 
      2 C          28.5989   -0.1434    1.0040 C.2       0 UNK         0.4855 
      3 O          28.5349   -1.2717    1.4909 O.2       0 UNK        -0.5197 
      4 N          28.3491    0.1329   -0.2864 N.am      1 UNK        -0.4892 
      5 CA         28.0071   -0.8001   -1.3761 C.3       1 UNK         0.0835 
      6 C6         29.2368   -1.4000   -2.1189 C.3       12 UNK        -0.0855 
      7 S7         30.4228   -2.3544   -1.1046 S.3       12 UNK        -0.2931 
      8 C8         30.1403   -4.0739   -1.6535 C.3       12 UNK         0.0378 
      9 C9         30.3587   -4.2684   -3.1499 C.ar      12 UNK        -0.0802 
     10 C10        31.5641   -3.8786   -3.7434 C.ar      12 UNK        -0.0944 
     11 C11        31.7567   -4.0227   -5.1190 C.ar      12 UNK        -0.0787 
     12 C12        30.7535   -4.6056   -5.8956 C.ar      12 UNK        -0.0862 
     13 C13        29.5342   -4.9776   -5.3218 C.ar      12 UNK        -0.0733 
     14 C14        29.3449   -4.8169   -3.9452 C.ar      12 UNK        -0.0832 
     15 C15        28.4048   -5.4834   -6.2137 C.3       12 UNK         0.0240 
     16 S16        27.1521   -4.1995   -6.5874 S.3       12 UNK        -0.2522 
     17 C17        28.1399   -2.6641   -6.6026 C.3       12 UNK        -0.0967 
     18 CA         27.5258   -1.4730   -7.3717 C.3       5 UNK         0.0660 
     19 N          26.1028   -1.2698   -7.0668 N.am      5 UNK        -0.4015 
     20 C          25.3213   -0.2454   -7.4469 C.2       4 UNK         0.4946 
     21 O          25.7220    0.7138   -8.1091 O.2       4 UNK        -0.5353 
     22 CA         23.8450   -0.2692   -7.0070 C.3       4 UNK         0.0277 
     23 CB         22.9403   -0.5534   -8.2171 C.3       4 UNK        -0.1981 
     24 N          23.5282   -1.2205   -5.9333 N.am      4 UNK        -0.4209 
     25 C          24.0267   -1.1791   -4.6905 C.2       3 UNK         0.4942 
     26 O          24.8514   -0.3413   -4.3074 O.2       3 UNK        -0.5208 
     27 CA         23.5601   -2.2842   -3.7338 C.3       3 UNK         0.0250 
     28 CB         24.1366   -3.6508   -4.1634 C.3       3 UNK        -0.1990 
     29 N          24.0383   -1.9273   -2.4050 N.am      3 UNK        -0.4232 
     30 C          23.7926   -2.5370   -1.2409 C.2       2 UNK         0.4993 
     31 O          22.9897   -3.4628   -1.1100 O.2       2 UNK        -0.5286 
     32 CA         24.5829   -2.0189   -0.0173 C.3       2 UNK         0.0209 
     33 CB         24.8604   -3.1308    1.0170 C.3       2 UNK        -0.1931 
     34 N          25.8308   -1.3161   -0.3686 N.am      2 UNK        -0.4546 
     35 C          26.8813   -1.8096   -1.0490 C.2       1 UNK         0.5154 
     36 O          26.9480   -2.9710   -1.4537 O.2       1 UNK        -0.5181 
     37 C          28.4120   -0.2424   -7.1001 C.2       5 UNK         0.5014 
     38 O          29.3773   -0.0196   -7.8327 O.2       5 UNK        -0.5248 
     39 N          28.0616    0.5384   -6.0668 N.am      6 UNK        -0.4434 
     40 CA         28.7414    1.7755   -5.6840 C.3       6 UNK         0.0363 
     41 CB         28.0581    2.3787   -4.4480 C.3       6 UNK        -0.1936 
     42 C          28.8264    2.8122   -6.8186 C.2       6 UNK         0.5081 
     43 O          29.8308    3.5191   -6.9060 O.2       6 UNK        -0.5248 
     44 N          27.7987    2.8455   -7.6773 N.am      7 UNK        -0.4718 
     45 CA         27.7532    3.6512   -8.8941 C.3       7 UNK         0.0273 
     46 CB         26.3908    4.3585   -8.9832 C.3       7 UNK        -0.1935 
     47 C          27.9906    2.7830  -10.1382 C.2       7 UNK         0.5018 
     48 O          28.7842    3.1710  -10.9944 O.2       7 UNK        -0.5186 
     49 N          27.3088    1.6298  -10.2221 N.am      8 UNK        -0.4240 
     50 CA         27.2742    0.7603  -11.4037 C.3       8 UNK         0.0235 
     51 CB         26.1732   -0.2993  -11.2322 C.3       8 UNK        -0.2000 
     52 C          28.6167    0.0934  -11.7441 C.2       8 UNK         0.4941 
     53 O          28.9305   -0.0464  -12.9267 O.2       8 UNK        -0.5273 
     54 N          29.3826   -0.2924  -10.7162 N.am      9 UNK        -0.4262 
     55 CA         30.7312   -0.8544  -10.8388 C.3       9 UNK         0.0264 
     56 CB         30.7836   -2.1881  -10.0714 C.3       9 UNK        -0.1955 
     57 C          31.8025    0.1284  -10.3286 C.2       9 UNK         0.5031 
     58 O          32.9836   -0.2210  -10.3307 O.2       9 UNK        -0.5390 
     59 N          31.3765    1.3295   -9.9039 N.am      10 UNK        -0.4204 
     60 CA         32.1673    2.4132   -9.3111 C.3       10 UNK         0.0237 
     61 CB         33.1354    3.0164  -10.3513 C.3       10 UNK        -0.1985 
     62 C          32.8679    2.0166   -7.9946 C.2       10 UNK         0.4970 
     63 O          33.9441    2.5399   -7.6987 O.2       10 UNK        -0.4914 
     64 N          32.2538    1.1069   -7.2249 N.am      11 UNK        -0.4285 
     65 CA         32.7867    0.6049   -5.9465 C.3       11 UNK         0.1007 
     66 C          32.6815    1.6025   -4.7540 C.2       11 UNK         0.5703 
     67 N          32.0372    2.7566   -4.8898 N.am      11 UNK        -0.7361 
     68 O          33.2156    1.3305   -3.6818 O.2       11 UNK        -0.4986 
     69 C69        32.2027   -0.7888   -5.5928 C.3       12 UNK        -0.0947 
     70 S70        32.6744   -2.0511   -6.8254 S.3       12 UNK        -0.2240 
     71 C71        33.0236   -3.5043   -5.7817 C.3       12 UNK         0.0194 
     72 H72        29.9555    0.8762    2.3307 H         1 UNK         0.0906 
     73 H73        28.9821    1.9748    1.3524 H         1 UNK         0.0906 
     74 H74        28.2497    1.1227    2.7130 H         1 UNK         0.0906 
     75 H75        28.4169    1.0990   -0.5760 H         1 UNK         0.3140 
     76 H76        27.5274   -0.1598   -2.1182 H         1 UNK         0.1085 
     77 H77        28.9054   -1.9997   -2.9678 H         1 UNK         0.0836 
     78 H78        29.8046   -0.5830   -2.5668 H         1 UNK         0.0836 
     79 H79        29.1355   -4.3802   -1.3617 H         1 UNK         0.0731 
     80 H80        30.8250   -4.7286   -1.1132 H         1 UNK         0.0731 
     81 H81        32.3381   -3.4301   -3.1356 H         1 UNK         0.1312 
     82 H82        30.9001   -4.7057   -6.9627 H         1 UNK         0.1406 
     83 H83        28.3968   -5.0897   -3.5007 H         1 UNK         0.1631 
     84 H84        27.9117   -6.3322   -5.7380 H         1 UNK         0.0717 
     85 H85        28.8089   -5.8582   -7.1554 H         1 UNK         0.0717 
     86 H86        28.3295   -2.4012   -5.5589 H         1 UNK         0.0934 
     87 H87        29.1120   -2.8830   -7.0460 H         1 UNK         0.0934 
     88 H88        27.5866   -1.6895   -8.4393 H         1 UNK         0.0739 
     89 H89        25.6726   -2.0131   -6.5368 H         1 UNK         0.3093 
     90 H90        23.6138    0.7315   -6.6359 H         1 UNK         0.0818 
     91 H91        21.8856   -0.4698   -7.9542 H         1 UNK         0.0819 
     92 H92        23.1269    0.1598   -9.0217 H         1 UNK         0.0819 
     93 H93        23.1093   -1.5518   -8.6227 H         1 UNK         0.0819 
     94 H94        22.8636   -1.9467   -6.1618 H         1 UNK         0.3041 
     95 H95        22.4689   -2.3147   -3.7269 H         1 UNK         0.0784 
     96 H96        23.8388   -3.9133   -5.1791 H         1 UNK         0.0793 
     97 H97        25.2273   -3.6527   -4.1300 H         1 UNK         0.0793 
     98 H98        23.7867   -4.4547   -3.5161 H         1 UNK         0.0793 
     99 H99        24.6764   -1.1405   -2.4218 H         1 UNK         0.3024 
    100 H100       23.9371   -1.2797    0.4597 H         1 UNK         0.1171 
    101 H101       23.9306   -3.5560    1.3967 H         1 UNK         0.0786 
    102 H102       25.4391   -3.9482    0.5856 H         1 UNK         0.0786 
    103 H103       25.4133   -2.7457    1.8739 H         1 UNK         0.0786 
    104 H104       25.8814   -0.3487   -0.0791 H         1 UNK         0.2977 
    105 H105       27.2383    0.2878   -5.5361 H         1 UNK         0.3127 
    106 H106       29.7582    1.4984   -5.4109 H         1 UNK         0.0770 
    107 H107       27.0106    2.6147   -4.6398 H         1 UNK         0.0814 
    108 H108       28.5513    3.3029   -4.1429 H         1 UNK         0.0814 
    109 H109       28.1009    1.6977   -3.5991 H         1 UNK         0.0814 
    110 H110       27.0405    2.1838   -7.5464 H         1 UNK         0.2983 
    111 H111       28.5307    4.4184   -8.8707 H         1 UNK         0.0947 
    112 H112       26.3211    4.9595   -9.8910 H         1 UNK         0.0806 
    113 H113       26.2404    5.0304   -8.1381 H         1 UNK         0.0806 
    114 H114       25.5628    3.6482   -8.9959 H         1 UNK         0.0806 
    115 H115       26.6867    1.3708   -9.4572 H         1 UNK         0.3000 
    116 H116       27.0030    1.3875  -12.2559 H         1 UNK         0.0850 
    117 H117       26.0877   -0.9212  -12.1243 H         1 UNK         0.0810 
    118 H118       25.1999    0.1628  -11.0656 H         1 UNK         0.0810 
    119 H119       26.3755   -0.9627  -10.3917 H         1 UNK         0.0810 
    120 H120       29.0641   -0.1343   -9.7648 H         1 UNK         0.3040 
    121 H121       30.9683   -1.0592  -11.8846 H         1 UNK         0.0766 
    122 H122       30.5829   -2.0526   -9.0092 H         1 UNK         0.0812 
    123 H123       31.7666   -2.6529  -10.1576 H         1 UNK         0.0812 
    124 H124       30.0546   -2.8983  -10.4613 H         1 UNK         0.0812 
    125 H125       30.3863    1.5137   -9.9793 H         1 UNK         0.3205 
    126 H126       31.4522    3.1926   -9.0451 H         1 UNK         0.0754 
    127 H127       33.6183    3.9143   -9.9637 H         1 UNK         0.0769 
    128 H128       32.6093    3.3022  -11.2623 H         1 UNK         0.0769 
    129 H129       33.9244    2.3151  -10.6246 H         1 UNK         0.0769 
    130 H130       31.3704    0.7141   -7.5289 H         1 UNK         0.2981 
    131 H131       33.8604    0.4643   -6.0865 H         1 UNK         0.0541 
    132 H132       31.5773    3.0026   -5.7566 H         1 UNK         0.3459 
    133 H133       32.0018    3.3894   -4.1071 H         1 UNK         0.3459 
    134 H134       31.1143   -0.7509   -5.5268 H         1 UNK         0.0612 
    135 H135       32.5571   -1.1157   -4.6137 H         1 UNK         0.0612 
    136 H136       33.4529   -4.2912   -6.4033 H         1 UNK         0.0624 
    137 H137       33.7814   -3.2467   -5.0402 H         1 UNK         0.0624 
@<TRIPOS>BOND
     1    1    2 1    
     2    1   72 1    
     3    1   73 1    
     4    1   74 1    
     5    2    3 2    
     6    2    4 am   BACKBONE|DICT|INTERRES
     7    4    5 1    
     8    4   75 1    
     9    5    6 1    
    10    5   35 1    
    11    5   76 1    
    12    6    7 1    
    13    6   77 1    
    14    6   78 1    
    15    7    8 1    
    16    8    9 1    
    17    8   79 1    
    18    8   80 1    
    19    9   10 ar   
    20    9   14 ar   
    21   10   11 ar   
    22   10   81 1    
    23   11   12 ar   
    24   11   71 1    
    25   12   13 ar   
    26   12   82 1    
    27   13   14 ar   
    28   13   15 1    
    29   14   83 1    
    30   15   16 1    
    31   15   84 1    
    32   15   85 1    
    33   16   17 1    
    34   17   18 1    
    35   17   86 1    
    36   17   87 1    
    37   18   19 1    
    38   18   37 1    
    39   18   88 1    
    40   19   20 am   BACKBONE|DICT|INTERRES
    41   19   89 1    
    42   20   21 2    
    43   20   22 1    
    44   22   23 1    
    45   22   24 1    
    46   22   90 1    
    47   23   91 1    
    48   23   92 1    
    49   23   93 1    
    50   24   25 am   BACKBONE|DICT|INTERRES
    51   24   94 1    
    52   25   26 2    
    53   25   27 1    
    54   27   28 1    
    55   27   29 1    
    56   27   95 1    
    57   28   96 1    
    58   28   97 1    
    59   28   98 1    
    60   29   30 am   BACKBONE|DICT|INTERRES
    61   29   99 1    
    62   30   31 2    
    63   30   32 1    
    64   32   33 1    
    65   32   34 1    
    66   32  100 1    
    67   33  101 1    
    68   33  102 1    
    69   33  103 1    
    70   34   35 am   BACKBONE|DICT|INTERRES
    71   34  104 1    
    72   35   36 2    
    73   37   38 2    
    74   37   39 am   BACKBONE|DICT|INTERRES
    75   39   40 1    
    76   39  105 1    
    77   40   41 1    
    78   40   42 1    
    79   40  106 1    
    80   41  107 1    
    81   41  108 1    
    82   41  109 1    
    83   42   43 2    
    84   42   44 am   BACKBONE|DICT|INTERRES
    85   44   45 1    
    86   44  110 1    
    87   45   46 1    
    88   45   47 1    
    89   45  111 1    
    90   46  112 1    
    91   46  113 1    
    92   46  114 1    
    93   47   48 2    
    94   47   49 am   BACKBONE|DICT|INTERRES
    95   49   50 1    
    96   49  115 1    
    97   50   51 1    
    98   50   52 1    
    99   50  116 1    
   100   51  117 1    
   101   51  118 1    
   102   51  119 1    
   103   52   53 2    
   104   52   54 am   BACKBONE|DICT|INTERRES
   105   54   55 1    
   106   54  120 1    
   107   55   56 1    
   108   55   57 1    
   109   55  121 1    
   110   56  122 1    
   111   56  123 1    
   112   56  124 1    
   113   57   58 2    
   114   57   59 am   BACKBONE|DICT|INTERRES
   115   59   60 1    
   116   59  125 1    
   117   60   61 1    
   118   60   62 1    
   119   60  126 1    
   120   61  127 1    
   121   61  128 1    
   122   61  129 1    
   123   62   63 2    
   124   62   64 am   BACKBONE|DICT|INTERRES
   125   64   65 1    
   126   64  130 1    
   127   65   66 1    
   128   65   69 1    
   129   65  131 1    
   130   66   67 am   BACKBONE|DICT|INTERRES
   131   66   68 2    
   132   67  132 1    
   133   67  133 1    
   134   69   70 1    
   135   69  134 1    
   136   69  135 1    
   137   70   71 1    
   138   71  136 1    
   139   71  137 1    
@<TRIPOS>SUBSTRUCTURE
     1 UNK         1 GROUP             0       ****    0 ROOT    
