@<TRIPOS>MOLECULE
3R137
137   139    1
SMALL
USER_CHARGES


@<TRIPOS>ATOM
      1 CA         28.7398   -5.7323   -5.2029 C.3       0 UNK        -0.2020 
      2 C          27.7487   -5.2946   -4.1362 C.2       0 UNK         0.4855 
      3 O          26.5460   -5.5145   -4.2848 O.2       0 UNK        -0.5197 
      4 N          28.2484   -4.6858   -3.0551 N.am      1 UNK        -0.4892 
      5 CA         27.4526   -4.2199   -1.9142 C.3       1 UNK         0.0835 
      6 C6         28.2944   -4.0266   -0.6162 C.3       12 UNK        -0.0855 
      7 S7         29.7090   -5.1795   -0.4325 S.3       12 UNK        -0.2931 
      8 C8         31.1573   -4.0623   -0.4397 C.3       12 UNK         0.0378 
      9 C9         31.1812   -3.1268   -1.6431 C.ar      12 UNK        -0.0802 
     10 C10        31.6111   -3.5784   -2.8944 C.ar      12 UNK        -0.0944 
     11 C11        31.5992   -2.7194   -3.9993 C.ar      12 UNK        -0.0787 
     12 C12        31.1228   -1.4120   -3.8536 C.ar      12 UNK        -0.0862 
     13 C13        30.7095   -0.9442   -2.6031 C.ar      12 UNK        -0.0733 
     14 C14        30.7688   -1.7990   -1.4998 C.ar      12 UNK        -0.0832 
     15 C15        30.1836    0.4750   -2.4377 C.3       12 UNK         0.0240 
     16 S16        28.4616    0.4524   -1.8422 S.3       12 UNK        -0.2522 
     17 C17        27.6462    1.8037   -2.7525 C.3       12 UNK        -0.0967 
     18 CA         27.7010    1.7140   -4.3020 C.3       5 UNK         0.0660 
     19 N          27.4709    0.3680   -4.8412 N.am      5 UNK        -0.4015 
     20 C          27.6514    0.0360   -6.1295 C.2       4 UNK         0.4946 
     21 O          28.1001    0.8037   -6.9800 O.2       4 UNK        -0.5353 
     22 CA         27.2121   -1.3658   -6.5688 C.3       4 UNK         0.0277 
     23 CB         28.3431   -2.3846   -6.3713 C.3       4 UNK        -0.1981 
     24 N          26.0003   -1.8021   -5.8741 N.am      4 UNK        -0.4209 
     25 C          24.7805   -1.2977   -6.1137 C.2       3 UNK         0.4942 
     26 O          24.5500   -0.4475   -6.9732 O.2       3 UNK        -0.5208 
     27 CA         23.6286   -1.7904   -5.2212 C.3       3 UNK         0.0250 
     28 CB         23.0652   -3.1187   -5.7502 C.3       3 UNK        -0.1990 
     29 N          24.0165   -1.9463   -3.8180 N.am      3 UNK        -0.4232 
     30 C          24.4130   -0.9426   -3.0229 C.2       2 UNK         0.4993 
     31 O          24.4485    0.2372   -3.3730 O.2       2 UNK        -0.5286 
     32 CA         24.9063   -1.3243   -1.6160 C.3       2 UNK         0.0209 
     33 CB         23.7336   -1.3428   -0.6228 C.3       2 UNK        -0.1931 
     34 N          25.6386   -2.5982   -1.5361 N.am      2 UNK        -0.4546 
     35 C          26.7100   -2.9167   -2.2781 C.2       1 UNK         0.5154 
     36 O          27.1276   -2.2103   -3.1992 O.2       1 UNK        -0.5181 
     37 C          26.7351    2.7429   -4.9220 C.2       5 UNK         0.5014 
     38 O          27.1799    3.8127   -5.3390 O.2       5 UNK        -0.5248 
     39 N          25.4408    2.3931   -4.9866 N.am      6 UNK        -0.4434 
     40 CA         24.3797    3.2108   -5.5798 C.3       6 UNK         0.0363 
     41 CB         23.0127    2.5695   -5.2921 C.3       6 UNK        -0.1936 
     42 C          24.5651    3.4375   -7.0892 C.2       6 UNK         0.5081 
     43 O          24.3683    4.5579   -7.5604 O.2       6 UNK        -0.5248 
     44 N          24.9548    2.3817   -7.8165 N.am      7 UNK        -0.4718 
     45 CA         25.2569    2.4366   -9.2496 C.3       7 UNK         0.0273 
     46 CB         25.2427    1.0079   -9.8169 C.3       7 UNK        -0.1935 
     47 C          26.5996    3.1176   -9.5729 C.2       7 UNK         0.5018 
     48 O          26.7823    3.5513  -10.7111 O.2       7 UNK        -0.5186 
     49 N          27.5123    3.1645   -8.5891 N.am      8 UNK        -0.4240 
     50 CA         28.9288    3.5382   -8.6938 C.3       8 UNK         0.0235 
     51 CB         29.0907    5.0335   -9.0401 C.3       8 UNK        -0.2000 
     52 C          29.6750    2.5961   -9.6591 C.2       8 UNK         0.4941 
     53 O          30.3641    3.0558  -10.5725 O.2       8 UNK        -0.5273 
     54 N          29.4702    1.2892   -9.4590 N.am      9 UNK        -0.4262 
     55 CA         29.9037    0.2140  -10.3471 C.3       9 UNK         0.0264 
     56 CB         28.6546   -0.5622  -10.7999 C.3       9 UNK        -0.1955 
     57 C          30.8785   -0.7295   -9.6335 C.2       9 UNK         0.5031 
     58 O          30.9314   -0.7532   -8.4012 O.2       9 UNK        -0.5390 
     59 N          31.6071   -1.5155  -10.4393 N.am      10 UNK        -0.4204 
     60 CA         32.5383   -2.5981  -10.0884 C.3       10 UNK         0.0237 
     61 CB         31.8089   -3.7520   -9.3692 C.3       10 UNK        -0.1985 
     62 C          33.7887   -2.1563   -9.3080 C.2       10 UNK         0.4970 
     63 O          34.9038   -2.4151   -9.7624 O.2       10 UNK        -0.4914 
     64 N          33.5804   -1.5176   -8.1553 N.am      11 UNK        -0.4285 
     65 CA         34.6233   -1.0715   -7.2202 C.3       11 UNK         0.1007 
     66 C          35.0439    0.4129   -7.4187 C.2       11 UNK         0.5703 
     67 N          34.4367    1.1631   -8.3311 N.am      11 UNK        -0.7361 
     68 O          35.9532    0.8902   -6.7440 O.2       11 UNK        -0.4986 
     69 C69        34.2174   -1.3589   -5.7508 C.3       12 UNK        -0.0947 
     70 S70        33.9196   -3.1357   -5.4475 S.3       12 UNK        -0.2240 
     71 C71        32.1032   -3.2060   -5.3491 C.3       12 UNK         0.0194 
     72 H72        28.2769   -5.7088   -6.1891 H         1 UNK         0.0906 
     73 H73        29.6119   -5.0810   -5.2234 H         1 UNK         0.0906 
     74 H74        29.0736   -6.7514   -5.0096 H         1 UNK         0.0906 
     75 H75        29.2380   -4.4935   -2.9857 H         1 UNK         0.3140 
     76 H76        26.6999   -4.9856   -1.7126 H         1 UNK         0.1085 
     77 H77        27.6476   -4.1656    0.2517 H         1 UNK         0.0836 
     78 H78        28.6526   -3.0026   -0.5228 H         1 UNK         0.0836 
     79 H79        32.0670   -4.6644   -0.4292 H         1 UNK         0.0731 
     80 H80        31.1650   -3.4890    0.4887 H         1 UNK         0.0731 
     81 H81        31.9599   -4.5960   -3.0074 H         1 UNK         0.1312 
     82 H82        31.0819   -0.7564   -4.7128 H         1 UNK         0.1406 
     83 H83        30.4481   -1.4354   -0.5328 H         1 UNK         0.1631 
     84 H84        30.2638    1.0195   -3.3770 H         1 UNK         0.0717 
     85 H85        30.8031    1.0118   -1.7182 H         1 UNK         0.0717 
     86 H86        26.6100    1.8143   -2.4075 H         1 UNK         0.0934 
     87 H87        28.0782    2.7490   -2.4185 H         1 UNK         0.0934 
     88 H88        28.7025    2.0083   -4.6198 H         1 UNK         0.0739 
     89 H89        27.1656   -0.3458   -4.1873 H         1 UNK         0.3093 
     90 H90        26.9904   -1.3194   -7.6370 H         1 UNK         0.0818 
     91 H91        28.0596   -3.3614   -6.7598 H         1 UNK         0.0819 
     92 H92        29.2411   -2.0752   -6.9053 H         1 UNK         0.0819 
     93 H93        28.6160   -2.4970   -5.3220 H         1 UNK         0.0819 
     94 H94        26.1316   -2.4173   -5.0800 H         1 UNK         0.3041 
     95 H95        22.8354   -1.0409   -5.2649 H         1 UNK         0.0784 
     96 H96        22.7562   -3.0232   -6.7922 H         1 UNK         0.0793 
     97 H97        23.8039   -3.9202   -5.7009 H         1 UNK         0.0793 
     98 H98        22.1895   -3.4329   -5.1819 H         1 UNK         0.0793 
     99 H99        24.0356   -2.8853   -3.4471 H         1 UNK         0.3024 
    100 H100       25.5998   -0.5396   -1.3063 H         1 UNK         0.1171 
    101 H101       24.0818   -1.4812    0.4010 H         1 UNK         0.0786 
    102 H102       23.1842   -0.4004   -0.6500 H         1 UNK         0.0786 
    103 H103       23.0246   -2.1402   -0.8487 H         1 UNK         0.0786 
    104 H104       25.3524   -3.2308   -0.8025 H         1 UNK         0.2977 
    105 H105       25.1492    1.5156   -4.5587 H         1 UNK         0.3127 
    106 H106       24.4060    4.1882   -5.0935 H         1 UNK         0.0770 
    107 H107       22.9367    1.5712   -5.7245 H         1 UNK         0.0814 
    108 H108       22.2032    3.1699   -5.7093 H         1 UNK         0.0814 
    109 H109       22.8335    2.4828   -4.2202 H         1 UNK         0.0814 
    110 H110       25.0234    1.4716   -7.3692 H         1 UNK         0.2983 
    111 H111       24.4715    3.0103   -9.7467 H         1 UNK         0.0947 
    112 H112       26.0003    0.3821   -9.3436 H         1 UNK         0.0806 
    113 H113       25.4410    1.0085  -10.8895 H         1 UNK         0.0806 
    114 H114       24.2741    0.5307   -9.6664 H         1 UNK         0.0806 
    115 H115       27.2576    2.7282   -7.7112 H         1 UNK         0.3000 
    116 H116       29.3622    3.3766   -7.7054 H         1 UNK         0.0850 
    117 H117       28.5555    5.6631   -8.3292 H         1 UNK         0.0810 
    118 H118       28.7197    5.2641  -10.0391 H         1 UNK         0.0810 
    119 H119       30.1405    5.3273   -9.0088 H         1 UNK         0.0810 
    120 H120       28.9788    1.0015   -8.6132 H         1 UNK         0.3040 
    121 H121       30.4036    0.6239  -11.2272 H         1 UNK         0.0766 
    122 H122       28.9127   -1.3632  -11.4937 H         1 UNK         0.0812 
    123 H123       27.9488    0.0920  -11.3124 H         1 UNK         0.0812 
    124 H124       28.1356   -1.0170   -9.9550 H         1 UNK         0.0812 
    125 H125       31.4955   -1.3751  -11.4345 H         1 UNK         0.3205 
    126 H126       32.8974   -2.9932  -11.0403 H         1 UNK         0.0754 
    127 H127       32.4967   -4.5671   -9.1402 H         1 UNK         0.0769 
    128 H128       31.0147   -4.1641   -9.9918 H         1 UNK         0.0769 
    129 H129       31.3600   -3.4338   -8.4285 H         1 UNK         0.0769 
    130 H130       32.6189   -1.2810   -7.9196 H         1 UNK         0.2981 
    131 H131       35.5293   -1.6483   -7.4147 H         1 UNK         0.0541 
    132 H132       34.7251    2.1207   -8.4546 H         1 UNK         0.3459 
    133 H133       33.6938    0.7802   -8.8922 H         1 UNK         0.3459 
    134 H134       35.0084   -1.0460   -5.0671 H         1 UNK         0.0612 
    135 H135       33.3365   -0.7774   -5.4793 H         1 UNK         0.0612 
    136 H136       31.7903   -4.2378   -5.5097 H         1 UNK         0.0624 
    137 H137       31.6654   -2.6222   -6.1597 H         1 UNK         0.0624 
@<TRIPOS>BOND
     1    1    2 1    
     2    1   72 1    
     3    1   73 1    
     4    1   74 1    
     5    2    3 2    
     6    2    4 am   BACKBONE|DICT|INTERRES
     7    4    5 1    
     8    4   75 1    
     9    5    6 1    
    10    5   35 1    
    11    5   76 1    
    12    6    7 1    
    13    6   77 1    
    14    6   78 1    
    15    7    8 1    
    16    8    9 1    
    17    8   79 1    
    18    8   80 1    
    19    9   10 ar   
    20    9   14 ar   
    21   10   11 ar   
    22   10   81 1    
    23   11   12 ar   
    24   11   71 1    
    25   12   13 ar   
    26   12   82 1    
    27   13   14 ar   
    28   13   15 1    
    29   14   83 1    
    30   15   16 1    
    31   15   84 1    
    32   15   85 1    
    33   16   17 1    
    34   17   18 1    
    35   17   86 1    
    36   17   87 1    
    37   18   19 1    
    38   18   37 1    
    39   18   88 1    
    40   19   20 am   BACKBONE|DICT|INTERRES
    41   19   89 1    
    42   20   21 2    
    43   20   22 1    
    44   22   23 1    
    45   22   24 1    
    46   22   90 1    
    47   23   91 1    
    48   23   92 1    
    49   23   93 1    
    50   24   25 am   BACKBONE|DICT|INTERRES
    51   24   94 1    
    52   25   26 2    
    53   25   27 1    
    54   27   28 1    
    55   27   29 1    
    56   27   95 1    
    57   28   96 1    
    58   28   97 1    
    59   28   98 1    
    60   29   30 am   BACKBONE|DICT|INTERRES
    61   29   99 1    
    62   30   31 2    
    63   30   32 1    
    64   32   33 1    
    65   32   34 1    
    66   32  100 1    
    67   33  101 1    
    68   33  102 1    
    69   33  103 1    
    70   34   35 am   BACKBONE|DICT|INTERRES
    71   34  104 1    
    72   35   36 2    
    73   37   38 2    
    74   37   39 am   BACKBONE|DICT|INTERRES
    75   39   40 1    
    76   39  105 1    
    77   40   41 1    
    78   40   42 1    
    79   40  106 1    
    80   41  107 1    
    81   41  108 1    
    82   41  109 1    
    83   42   43 2    
    84   42   44 am   BACKBONE|DICT|INTERRES
    85   44   45 1    
    86   44  110 1    
    87   45   46 1    
    88   45   47 1    
    89   45  111 1    
    90   46  112 1    
    91   46  113 1    
    92   46  114 1    
    93   47   48 2    
    94   47   49 am   BACKBONE|DICT|INTERRES
    95   49   50 1    
    96   49  115 1    
    97   50   51 1    
    98   50   52 1    
    99   50  116 1    
   100   51  117 1    
   101   51  118 1    
   102   51  119 1    
   103   52   53 2    
   104   52   54 am   BACKBONE|DICT|INTERRES
   105   54   55 1    
   106   54  120 1    
   107   55   56 1    
   108   55   57 1    
   109   55  121 1    
   110   56  122 1    
   111   56  123 1    
   112   56  124 1    
   113   57   58 2    
   114   57   59 am   BACKBONE|DICT|INTERRES
   115   59   60 1    
   116   59  125 1    
   117   60   61 1    
   118   60   62 1    
   119   60  126 1    
   120   61  127 1    
   121   61  128 1    
   122   61  129 1    
   123   62   63 2    
   124   62   64 am   BACKBONE|DICT|INTERRES
   125   64   65 1    
   126   64  130 1    
   127   65   66 1    
   128   65   69 1    
   129   65  131 1    
   130   66   67 am   BACKBONE|DICT|INTERRES
   131   66   68 2    
   132   67  132 1    
   133   67  133 1    
   134   69   70 1    
   135   69  134 1    
   136   69  135 1    
   137   70   71 1    
   138   71  136 1    
   139   71  137 1    
@<TRIPOS>SUBSTRUCTURE
     1 UNK         1 GROUP             0       ****    0 ROOT    
