@<TRIPOS>MOLECULE
3R137
137   139    1
SMALL
USER_CHARGES


@<TRIPOS>ATOM
      1 CA         24.7136   -5.3723   -4.7607 C.3       0 UNK        -0.2020 
      2 C          24.9355   -4.3924   -3.6185 C.2       0 UNK         0.4855 
      3 O          24.2707   -3.3553   -3.5665 O.2       0 UNK        -0.5197 
      4 N          25.8684   -4.7112   -2.7104 N.am      1 UNK        -0.4892 
      5 CA         26.2527   -3.8866   -1.5583 C.3       1 UNK         0.0835 
      6 C6         27.0419   -4.6859   -0.4844 C.3       12 UNK        -0.0855 
      7 S7         28.4124   -5.7187   -1.1057 S.3       12 UNK        -0.2931 
      8 C8         29.8581   -4.6029   -0.9979 C.3       12 UNK         0.0378 
      9 C9         30.2073   -3.9390   -2.3278 C.ar      12 UNK        -0.0802 
     10 C10        30.6117   -2.5984   -2.3650 C.ar      12 UNK        -0.0944 
     11 C11        30.9613   -1.9983   -3.5800 C.ar      12 UNK        -0.0787 
     12 C12        30.9062   -2.7443   -4.7579 C.ar      12 UNK        -0.0862 
     13 C13        30.4875   -4.0757   -4.7401 C.ar      12 UNK        -0.0733 
     14 C14        30.1600   -4.6707   -3.5206 C.ar      12 UNK        -0.0832 
     15 C15        30.3391   -4.8652   -6.0349 C.3       12 UNK         0.0240 
     16 S16        29.2872   -4.0403   -7.2817 S.3       12 UNK        -0.2522 
     17 C17        27.8911   -3.3732   -6.3093 C.3       12 UNK        -0.0967 
     18 CA         27.2637   -2.1156   -6.9541 C.3       5 UNK         0.0660 
     19 N          25.9167   -1.8749   -6.4275 N.am      5 UNK        -0.4015 
     20 C          24.9759   -1.1860   -7.0863 C.2       4 UNK         0.4946 
     21 O          25.1460   -0.6985   -8.2035 O.2       4 UNK        -0.5353 
     22 CA         23.6348   -0.9727   -6.3669 C.3       4 UNK         0.0277 
     23 CB         22.7158   -2.1916   -6.5443 C.3       4 UNK        -0.1981 
     24 N          23.7870   -0.6631   -4.9415 N.am      4 UNK        -0.4209 
     25 C          24.3183    0.4785   -4.4811 C.2       3 UNK         0.4942 
     26 O          24.8030    1.3411   -5.2100 O.2       3 UNK        -0.5208 
     27 CA         24.3655    0.6877   -2.9664 C.3       3 UNK         0.0250 
     28 CB         23.1708    0.0664   -2.2154 C.3       3 UNK        -0.1990 
     29 N          25.6101    0.1108   -2.4852 N.am      3 UNK        -0.4232 
     30 C          26.3989    0.5831   -1.5155 C.2       2 UNK         0.4993 
     31 O          26.1865    1.6328   -0.9068 O.2       2 UNK        -0.5286 
     32 CA         27.6073   -0.3076   -1.1472 C.3       2 UNK         0.0209 
     33 CB         28.3459    0.1732    0.1151 C.3       2 UNK        -0.1931 
     34 N          27.1939   -1.7030   -0.9608 N.am      2 UNK        -0.4546 
     35 C          26.9334   -2.5592   -1.9587 C.2       1 UNK         0.5154 
     36 O          27.1216   -2.2675   -3.1445 O.2       1 UNK        -0.5181 
     37 C          28.1504   -0.8473   -6.8583 C.2       5 UNK         0.5014 
     38 O          29.0132   -0.6368   -7.7146 O.2       5 UNK        -0.5248 
     39 N          27.8827    0.0220   -5.8700 N.am      6 UNK        -0.4434 
     40 CA         28.4731    1.3610   -5.7811 C.3       6 UNK         0.0363 
     41 CB         28.2495    1.9603   -4.3857 C.3       6 UNK        -0.1936 
     42 C          27.9469    2.3008   -6.8785 C.2       6 UNK         0.5081 
     43 O          28.7442    3.0126   -7.4859 O.2       6 UNK        -0.5248 
     44 N          26.6365    2.2538   -7.1621 N.am      7 UNK        -0.4718 
     45 CA         25.9936    2.9768   -8.2676 C.3       7 UNK         0.0273 
     46 CB         24.4666    2.8451   -8.1578 C.3       7 UNK        -0.1935 
     47 C          26.4825    2.5222   -9.6552 C.2       7 UNK         0.5018 
     48 O          26.5562    3.3447  -10.5683 O.2       7 UNK        -0.5186 
     49 N          26.8635    1.2418   -9.7732 N.am      8 UNK        -0.4240 
     50 CA         27.5582    0.6679  -10.9307 C.3       8 UNK         0.0235 
     51 CB         27.4286   -0.8644  -10.8887 C.3       8 UNK        -0.2000 
     52 C          29.0401    1.0916  -11.0429 C.2       8 UNK         0.4941 
     53 O          29.6866    0.7221  -12.0237 O.2       8 UNK        -0.5273 
     54 N          29.5504    1.8510  -10.0597 N.am      9 UNK        -0.4262 
     55 CA         30.8893    2.4421   -9.9711 C.3       9 UNK         0.0264 
     56 CB         31.1535    3.4110  -11.1441 C.3       9 UNK        -0.1955 
     57 C          32.0231    1.4217   -9.7726 C.2       9 UNK         0.5031 
     58 O          33.1768    1.7460  -10.0606 O.2       9 UNK        -0.5390 
     59 N          31.7139    0.2295   -9.2402 N.am      10 UNK        -0.4204 
     60 CA         32.7050   -0.8225   -8.9811 C.3       10 UNK         0.0237 
     61 CB         31.9858   -2.1443   -8.6904 C.3       10 UNK        -0.1985 
     62 C          33.7087   -0.4724   -7.8644 C.2       10 UNK         0.4970 
     63 O          34.8404   -0.9561   -7.9089 O.2       10 UNK        -0.4914 
     64 N          33.2971    0.3828   -6.9183 N.am      11 UNK        -0.4285 
     65 CA         34.1755    1.0144   -5.9174 C.3       11 UNK         0.1007 
     66 C          34.8145    2.3501   -6.4068 C.2       11 UNK         0.5703 
     67 N          34.6286    2.7793   -7.6506 N.am      11 UNK        -0.7361 
     68 O          35.5165    3.0105   -5.6446 O.2       11 UNK        -0.4986 
     69 C69        33.4669    1.1739   -4.5424 C.3       12 UNK        -0.0947 
     70 S70        33.2110   -0.4371   -3.7279 S.3       12 UNK        -0.2240 
     71 C71        31.3998   -0.5460   -3.6481 C.3       12 UNK         0.0194 
     72 H72        24.8395   -4.8718   -5.7198 H         1 UNK         0.0906 
     73 H73        23.7009   -5.7718   -4.7171 H         1 UNK         0.0906 
     74 H74        25.4111   -6.2088   -4.7215 H         1 UNK         0.0906 
     75 H75        26.4122   -5.5553   -2.8227 H         1 UNK         0.3140 
     76 H76        25.3155   -3.5793   -1.0879 H         1 UNK         0.1085 
     77 H77        26.3464   -5.3727    0.0010 H         1 UNK         0.0836 
     78 H78        27.3999   -4.0487    0.3255 H         1 UNK         0.0836 
     79 H79        29.6928   -3.8546   -0.2214 H         1 UNK         0.0731 
     80 H80        30.7203   -5.1889   -0.6774 H         1 UNK         0.0731 
     81 H81        30.6589   -2.0229   -1.4508 H         1 UNK         0.1312 
     82 H82        31.1667   -2.2751   -5.6938 H         1 UNK         0.1406 
     83 H83        29.8499   -5.7063   -3.5024 H         1 UNK         0.1631 
     84 H84        29.9177   -5.8519   -5.8369 H         1 UNK         0.0717 
     85 H85        31.3275   -5.0335   -6.4643 H         1 UNK         0.0717 
     86 H86        27.1511   -4.1715   -6.2461 H         1 UNK         0.0934 
     87 H87        28.1777   -3.1586   -5.2820 H         1 UNK         0.0934 
     88 H88        27.1514   -2.3304   -8.0191 H         1 UNK         0.0739 
     89 H89        25.7114   -2.2298   -5.5031 H         1 UNK         0.3093 
     90 H90        23.1471   -0.1177   -6.8405 H         1 UNK         0.0818 
     91 H91        22.5782   -2.4256   -7.6010 H         1 UNK         0.0819 
     92 H92        23.1205   -3.0817   -6.0635 H         1 UNK         0.0819 
     93 H93        21.7272   -2.0058   -6.1241 H         1 UNK         0.0819 
     94 H94        23.4898   -1.3743   -4.2833 H         1 UNK         0.3041 
     95 H95        24.3650    1.7658   -2.7910 H         1 UNK         0.0784 
     96 H96        22.2230    0.4099   -2.6319 H         1 UNK         0.0793 
     97 H97        23.1775   -1.0236   -2.2553 H         1 UNK         0.0793 
     98 H98        23.1825    0.3539   -1.1639 H         1 UNK         0.0793 
     99 H99        25.9004   -0.7575   -2.9255 H         1 UNK         0.3024 
    100 H100       28.3119   -0.2617   -1.9800 H         1 UNK         0.1171 
    101 H101       28.7172    1.1909   -0.0135 H         1 UNK         0.0786 
    102 H102       27.6949    0.1708    0.9901 H         1 UNK         0.0786 
    103 H103       29.2074   -0.4577    0.3348 H         1 UNK         0.0786 
    104 H104       26.9706   -1.9742   -0.0139 H         1 UNK         0.2977 
    105 H105       27.1565   -0.2068   -5.2093 H         1 UNK         0.3127 
    106 H106       29.5503    1.2646   -5.9313 H         1 UNK         0.0770 
    107 H107       27.1906    2.0526   -4.1449 H         1 UNK         0.0814 
    108 H108       28.6832    2.9591   -4.3195 H         1 UNK         0.0814 
    109 H109       28.7262    1.3555   -3.6165 H         1 UNK         0.0814 
    110 H110       26.0211    1.7140   -6.5568 H         1 UNK         0.2983 
    111 H111       26.2517    4.0330   -8.1634 H         1 UNK         0.0947 
    112 H112       24.1434    1.8076   -8.2411 H         1 UNK         0.0806 
    113 H113       23.9683    3.4067   -8.9492 H         1 UNK         0.0806 
    114 H114       24.1026    3.2333   -7.2064 H         1 UNK         0.0806 
    115 H115       26.6807    0.6185   -8.9950 H         1 UNK         0.3000 
    116 H116       27.0561    1.0237  -11.8328 H         1 UNK         0.0850 
    117 H117       27.8205   -1.3133  -11.8022 H         1 UNK         0.0810 
    118 H118       26.3877   -1.1754  -10.7961 H         1 UNK         0.0810 
    119 H119       27.9840   -1.2944  -10.0560 H         1 UNK         0.0810 
    120 H120       28.9464    2.0859   -9.2788 H         1 UNK         0.3040 
    121 H121       30.8843    3.0428   -9.0610 H         1 UNK         0.0766 
    122 H122       31.2640    2.8818  -12.0910 H         1 UNK         0.0812 
    123 H123       32.0701    3.9799  -10.9837 H         1 UNK         0.0812 
    124 H124       30.3430    4.1316  -11.2535 H         1 UNK         0.0812 
    125 H125       30.7503    0.0300   -8.9924 H         1 UNK         0.3205 
    126 H126       33.2873   -0.9595   -9.8950 H         1 UNK         0.0754 
    127 H127       32.6916   -2.9382   -8.4421 H         1 UNK         0.0769 
    128 H128       31.4075   -2.4791   -9.5517 H         1 UNK         0.0769 
    129 H129       31.2992   -2.0381   -7.8549 H         1 UNK         0.0769 
    130 H130       32.3544    0.7364   -6.9682 H         1 UNK         0.2981 
    131 H131       35.0325    0.3588   -5.7525 H         1 UNK         0.0541 
    132 H132       35.0643    3.6431   -7.9317 H         1 UNK         0.3459 
    133 H133       34.1045    2.2439   -8.3324 H         1 UNK         0.3459 
    134 H134       32.5214    1.7076   -4.6509 H         1 UNK         0.0612 
    135 H135       34.0715    1.7693   -3.8561 H         1 UNK         0.0612 
    136 H136       31.0365    0.0147   -2.7856 H         1 UNK         0.0624 
    137 H137       30.9614   -0.0828   -4.5324 H         1 UNK         0.0624 
@<TRIPOS>BOND
     1    1    2 1    
     2    1   72 1    
     3    1   73 1    
     4    1   74 1    
     5    2    3 2    
     6    2    4 am   BACKBONE|DICT|INTERRES
     7    4    5 1    
     8    4   75 1    
     9    5    6 1    
    10    5   35 1    
    11    5   76 1    
    12    6    7 1    
    13    6   77 1    
    14    6   78 1    
    15    7    8 1    
    16    8    9 1    
    17    8   79 1    
    18    8   80 1    
    19    9   10 ar   
    20    9   14 ar   
    21   10   11 ar   
    22   10   81 1    
    23   11   12 ar   
    24   11   71 1    
    25   12   13 ar   
    26   12   82 1    
    27   13   14 ar   
    28   13   15 1    
    29   14   83 1    
    30   15   16 1    
    31   15   84 1    
    32   15   85 1    
    33   16   17 1    
    34   17   18 1    
    35   17   86 1    
    36   17   87 1    
    37   18   19 1    
    38   18   37 1    
    39   18   88 1    
    40   19   20 am   BACKBONE|DICT|INTERRES
    41   19   89 1    
    42   20   21 2    
    43   20   22 1    
    44   22   23 1    
    45   22   24 1    
    46   22   90 1    
    47   23   91 1    
    48   23   92 1    
    49   23   93 1    
    50   24   25 am   BACKBONE|DICT|INTERRES
    51   24   94 1    
    52   25   26 2    
    53   25   27 1    
    54   27   28 1    
    55   27   29 1    
    56   27   95 1    
    57   28   96 1    
    58   28   97 1    
    59   28   98 1    
    60   29   30 am   BACKBONE|DICT|INTERRES
    61   29   99 1    
    62   30   31 2    
    63   30   32 1    
    64   32   33 1    
    65   32   34 1    
    66   32  100 1    
    67   33  101 1    
    68   33  102 1    
    69   33  103 1    
    70   34   35 am   BACKBONE|DICT|INTERRES
    71   34  104 1    
    72   35   36 2    
    73   37   38 2    
    74   37   39 am   BACKBONE|DICT|INTERRES
    75   39   40 1    
    76   39  105 1    
    77   40   41 1    
    78   40   42 1    
    79   40  106 1    
    80   41  107 1    
    81   41  108 1    
    82   41  109 1    
    83   42   43 2    
    84   42   44 am   BACKBONE|DICT|INTERRES
    85   44   45 1    
    86   44  110 1    
    87   45   46 1    
    88   45   47 1    
    89   45  111 1    
    90   46  112 1    
    91   46  113 1    
    92   46  114 1    
    93   47   48 2    
    94   47   49 am   BACKBONE|DICT|INTERRES
    95   49   50 1    
    96   49  115 1    
    97   50   51 1    
    98   50   52 1    
    99   50  116 1    
   100   51  117 1    
   101   51  118 1    
   102   51  119 1    
   103   52   53 2    
   104   52   54 am   BACKBONE|DICT|INTERRES
   105   54   55 1    
   106   54  120 1    
   107   55   56 1    
   108   55   57 1    
   109   55  121 1    
   110   56  122 1    
   111   56  123 1    
   112   56  124 1    
   113   57   58 2    
   114   57   59 am   BACKBONE|DICT|INTERRES
   115   59   60 1    
   116   59  125 1    
   117   60   61 1    
   118   60   62 1    
   119   60  126 1    
   120   61  127 1    
   121   61  128 1    
   122   61  129 1    
   123   62   63 2    
   124   62   64 am   BACKBONE|DICT|INTERRES
   125   64   65 1    
   126   64  130 1    
   127   65   66 1    
   128   65   69 1    
   129   65  131 1    
   130   66   67 am   BACKBONE|DICT|INTERRES
   131   66   68 2    
   132   67  132 1    
   133   67  133 1    
   134   69   70 1    
   135   69  134 1    
   136   69  135 1    
   137   70   71 1    
   138   71  136 1    
   139   71  137 1    
@<TRIPOS>SUBSTRUCTURE
     1 UNK         1 GROUP             0       ****    0 ROOT    
