@<TRIPOS>MOLECULE
3R137
137   139    1
SMALL
USER_CHARGES


@<TRIPOS>ATOM
      1 CA         24.6133   -5.0559   -4.1249 C.3       0 UNK        -0.2020 
      2 C          25.4204   -4.1099   -3.2496 C.2       0 UNK         0.4855 
      3 O          25.6270   -2.9563   -3.6317 O.2       0 UNK        -0.5197 
      4 N          25.8557   -4.5901   -2.0754 N.am      1 UNK        -0.4892 
      5 CA         26.6769   -3.8863   -1.0731 C.3       1 UNK         0.0835 
      6 C6         28.1475   -3.6767   -1.5255 C.3       12 UNK        -0.0855 
      7 S7         29.0187   -5.2668   -1.7405 S.3       12 UNK        -0.2931 
      8 C8         30.7619   -4.7268   -1.7214 C.3       12 UNK         0.0378 
      9 C9         31.0596   -3.7741   -2.8695 C.ar      12 UNK        -0.0802 
     10 C10        31.4428   -2.4521   -2.6209 C.ar      12 UNK        -0.0944 
     11 C11        31.6384   -1.5599   -3.6802 C.ar      12 UNK        -0.0787 
     12 C12        31.4263   -1.9969   -4.9920 C.ar      12 UNK        -0.0862 
     13 C13        31.0583   -3.3205   -5.2525 C.ar      12 UNK        -0.0733 
     14 C14        30.9078   -4.2109   -4.1872 C.ar      12 UNK        -0.0832 
     15 C15        30.7924   -3.7749   -6.6824 C.3       12 UNK         0.0240 
     16 S16        29.1911   -4.6304   -6.9066 S.3       12 UNK        -0.2522 
     17 C17        27.9990   -3.6029   -5.9765 C.3       12 UNK        -0.0967 
     18 CA         27.3681   -2.4677   -6.8163 C.3       5 UNK         0.0660 
     19 N          26.0322   -2.1084   -6.3303 N.am      5 UNK        -0.4015 
     20 C          25.1560   -1.3818   -7.0364 C.2       4 UNK         0.4946 
     21 O          25.3838   -0.9425   -8.1641 O.2       4 UNK        -0.5353 
     22 CA         23.8049   -1.0677   -6.3727 C.3       4 UNK         0.0277 
     23 CB         22.8509   -2.2662   -6.4995 C.3       4 UNK        -0.1981 
     24 N          23.8714   -0.6374   -4.9703 N.am      4 UNK        -0.4209 
     25 C          24.6117    0.3810   -4.5067 C.2       3 UNK         0.4942 
     26 O          25.4582    0.9749   -5.1707 O.2       3 UNK        -0.5208 
     27 CA         24.3315    0.8537   -3.0779 C.3       3 UNK         0.0250 
     28 CB         23.0836    1.7662   -3.0931 C.3       3 UNK        -0.1990 
     29 N          24.1849   -0.2734   -2.1503 N.am      3 UNK        -0.4232 
     30 C          23.9859   -0.1626   -0.8279 C.2       2 UNK         0.4993 
     31 O          23.9011    0.9099   -0.2283 O.2       2 UNK        -0.5286 
     32 CA         23.8582   -1.4646   -0.0193 C.3       2 UNK         0.0209 
     33 CB         22.3884   -1.9113    0.0487 C.3       2 UNK        -0.1931 
     34 N          24.6747   -2.5677   -0.5287 N.am      2 UNK        -0.4546 
     35 C          26.0158   -2.5947   -0.5358 C.2       1 UNK         0.5154 
     36 O          26.7116   -1.6683   -0.1158 O.2       1 UNK        -0.5181 
     37 C          28.2864   -1.2330   -6.8854 C.2       5 UNK         0.5014 
     38 O          29.0025   -1.0589   -7.8729 O.2       5 UNK        -0.5248 
     39 N          28.2212   -0.3778   -5.8541 N.am      6 UNK        -0.4434 
     40 CA         28.9670    0.8777   -5.7714 C.3       6 UNK         0.0363 
     41 CB         28.8043    1.4929   -4.3720 C.3       6 UNK        -0.1936 
     42 C          28.5503    1.8709   -6.8645 C.2       6 UNK         0.5081 
     43 O          29.4193    2.4696   -7.4934 O.2       6 UNK        -0.5248 
     44 N          27.2388    1.9895   -7.1058 N.am      7 UNK        -0.4718 
     45 CA         26.6584    2.8001   -8.1769 C.3       7 UNK         0.0273 
     46 CB         25.1296    2.8314   -8.0206 C.3       7 UNK        -0.1935 
     47 C          27.0532    2.3123   -9.5816 C.2       7 UNK         0.5018 
     48 O          27.3221    3.1420  -10.4509 O.2       7 UNK        -0.5186 
     49 N          27.0860    0.9864   -9.7768 N.am      8 UNK        -0.4240 
     50 CA         27.4602    0.3492  -11.0388 C.3       8 UNK         0.0235 
     51 CB         26.9994   -1.1182  -11.0356 C.3       8 UNK        -0.2000 
     52 C          28.9643    0.4452  -11.3407 C.2       8 UNK         0.4941 
     53 O          29.3317    0.8667  -12.4383 O.2       8 UNK        -0.5273 
     54 N          29.8040    0.0225  -10.3860 N.am      9 UNK        -0.4262 
     55 CA         31.2448   -0.1590  -10.5918 C.3       9 UNK         0.0264 
     56 CB         31.7026   -1.3839   -9.7812 C.3       9 UNK        -0.1955 
     57 C          32.0975    1.0598  -10.2061 C.2       9 UNK         0.5031 
     58 O          33.3071    1.0237  -10.4399 O.2       9 UNK        -0.5390 
     59 N          31.5035    2.0674   -9.5452 N.am      10 UNK        -0.4204 
     60 CA         32.1749    3.2109   -8.8984 C.3       10 UNK         0.0237 
     61 CB         32.8603    4.1181   -9.9429 C.3       10 UNK        -0.1985 
     62 C          33.1338    2.7866   -7.7616 C.2       10 UNK         0.4970 
     63 O          34.0216    3.5555   -7.3898 O.2       10 UNK        -0.4914 
     64 N          32.9494    1.5587   -7.2547 N.am      11 UNK        -0.4285 
     65 CA         33.8545    0.8324   -6.3535 C.3       11 UNK         0.1007 
     66 C          35.2676    0.5365   -6.9489 C.2       11 UNK         0.5703 
     67 N          35.4412    0.5448   -8.2671 N.am      11 UNK        -0.7361 
     68 O          36.2162    0.2663   -6.2163 O.2       11 UNK        -0.4986 
     69 C69        33.8670    1.4296   -4.9154 C.3       12 UNK        -0.0947 
     70 S70        33.8343    0.1348   -3.6268 S.3       12 UNK        -0.2240 
     71 C71        32.0438   -0.1184   -3.4037 C.3       12 UNK         0.0194 
     72 H72        23.5554   -4.8010   -4.0741 H         1 UNK         0.0906 
     73 H73        24.7293   -6.0937   -3.8131 H         1 UNK         0.0906 
     74 H74        24.9323   -4.9814   -5.1638 H         1 UNK         0.0906 
     75 H75        25.6399   -5.5489   -1.8377 H         1 UNK         0.3140 
     76 H76        26.7051   -4.5448   -0.2031 H         1 UNK         0.1085 
     77 H77        28.1904   -3.1094   -2.4570 H         1 UNK         0.0836 
     78 H78        28.7056   -3.0977   -0.7874 H         1 UNK         0.0836 
     79 H79        30.9865   -4.2652   -0.7585 H         1 UNK         0.0731 
     80 H80        31.4081   -5.6018   -1.8038 H         1 UNK         0.0731 
     81 H81        31.5727   -2.1116   -1.6026 H         1 UNK         0.1312 
     82 H82        31.5350   -1.3036   -5.8125 H         1 UNK         0.1406 
     83 H83        30.6085   -5.2325   -4.3800 H         1 UNK         0.1631 
     84 H84        30.8235   -2.9281   -7.3658 H         1 UNK         0.0717 
     85 H85        31.5942   -4.4452   -6.9942 H         1 UNK         0.0717 
     86 H86        27.2184   -4.2977   -5.6676 H         1 UNK         0.0934 
     87 H87        28.4221   -3.2313   -5.0423 H         1 UNK         0.0934 
     88 H88        27.2415   -2.8333   -7.8380 H         1 UNK         0.0739 
     89 H89        25.7912   -2.3918   -5.3821 H         1 UNK         0.3093 
     90 H90        23.3692   -0.2364   -6.9309 H         1 UNK         0.0818 
     91 H91        21.8445   -2.0110   -6.1673 H         1 UNK         0.0819 
     92 H92        22.7723   -2.5953   -7.5369 H         1 UNK         0.0819 
     93 H93        23.1928   -3.1185   -5.9128 H         1 UNK         0.0819 
     94 H94        23.1873   -1.0462   -4.3516 H         1 UNK         0.3041 
     95 H95        25.1927    1.4421   -2.7546 H         1 UNK         0.0784 
     96 H96        23.1548    2.5152   -3.8836 H         1 UNK         0.0793 
     97 H97        22.1690    1.1977   -3.2647 H         1 UNK         0.0793 
     98 H98        22.9657    2.3148   -2.1594 H         1 UNK         0.0793 
     99 H99        24.3513   -1.1959   -2.5340 H         1 UNK         0.3024 
    100 H100       24.1957   -1.2451    0.9965 H         1 UNK         0.1171 
    101 H101       22.2654   -2.7758    0.7015 H         1 UNK         0.0786 
    102 H102       21.7570   -1.1156    0.4469 H         1 UNK         0.0786 
    103 H103       21.9988   -2.1741   -0.9357 H         1 UNK         0.0786 
    104 H104       24.1851   -3.3745   -0.8880 H         1 UNK         0.2977 
    105 H105       27.5544   -0.5582   -5.1176 H         1 UNK         0.3127 
    106 H106       30.0219    0.6461   -5.9257 H         1 UNK         0.0770 
    107 H107       27.7769    1.8018   -4.1787 H         1 UNK         0.0814 
    108 H108       29.4335    2.3773   -4.2634 H         1 UNK         0.0814 
    109 H109       29.0918    0.7902   -3.5899 H         1 UNK         0.0814 
    110 H110       26.5880    1.4940   -6.4974 H         1 UNK         0.2983 
    111 H111       27.0365    3.8184   -8.0637 H         1 UNK         0.0947 
    112 H112       24.6695    3.4488   -8.7932 H         1 UNK         0.0806 
    113 H113       24.8388    3.2471   -7.0556 H         1 UNK         0.0806 
    114 H114       24.6965    1.8332   -8.0967 H         1 UNK         0.0806 
    115 H115       26.7949    0.3743   -9.0215 H         1 UNK         0.3000 
    116 H116       26.9296    0.8616  -11.8445 H         1 UNK         0.0850 
    117 H117       25.9166   -1.1912  -10.9327 H         1 UNK         0.0810 
    118 H118       27.4489   -1.6835  -10.2182 H         1 UNK         0.0810 
    119 H119       27.2707   -1.6166  -11.9672 H         1 UNK         0.0810 
    120 H120       29.4238   -0.3168   -9.5021 H         1 UNK         0.3040 
    121 H121       31.4381   -0.3673  -11.6464 H         1 UNK         0.0766 
    122 H122       31.1071   -2.2658  -10.0186 H         1 UNK         0.0812 
    123 H123       31.6250   -1.2042   -8.7091 H         1 UNK         0.0812 
    124 H124       32.7438   -1.6298   -9.9944 H         1 UNK         0.0812 
    125 H125       30.5130    1.9901   -9.3414 H         1 UNK         0.3205 
    126 H126       31.3926    3.8045   -8.4253 H         1 UNK         0.0754 
    127 H127       33.7242    3.6345  -10.3997 H         1 UNK         0.0769 
    128 H128       33.2133    5.0430   -9.4852 H         1 UNK         0.0769 
    129 H129       32.1703    4.3959  -10.7396 H         1 UNK         0.0769 
    130 H130       32.1819    1.0219   -7.6270 H         1 UNK         0.2981 
    131 H131       33.4043   -0.1568   -6.2966 H         1 UNK         0.0541 
    132 H132       34.6785    0.7563   -8.9005 H         1 UNK         0.3459 
    133 H133       36.3553    0.3429   -8.6392 H         1 UNK         0.3459 
    134 H134       33.0123    2.0889   -4.7569 H         1 UNK         0.0612 
    135 H135       34.7426    2.0622   -4.7599 H         1 UNK         0.0612 
    136 H136       31.4851    0.5464   -4.0599 H         1 UNK         0.0624 
    137 H137       31.7731    0.1660   -2.3858 H         1 UNK         0.0624 
@<TRIPOS>BOND
     1    1    2 1    
     2    1   72 1    
     3    1   73 1    
     4    1   74 1    
     5    2    3 2    
     6    2    4 am   BACKBONE|DICT|INTERRES
     7    4    5 1    
     8    4   75 1    
     9    5    6 1    
    10    5   35 1    
    11    5   76 1    
    12    6    7 1    
    13    6   77 1    
    14    6   78 1    
    15    7    8 1    
    16    8    9 1    
    17    8   79 1    
    18    8   80 1    
    19    9   10 ar   
    20    9   14 ar   
    21   10   11 ar   
    22   10   81 1    
    23   11   12 ar   
    24   11   71 1    
    25   12   13 ar   
    26   12   82 1    
    27   13   14 ar   
    28   13   15 1    
    29   14   83 1    
    30   15   16 1    
    31   15   84 1    
    32   15   85 1    
    33   16   17 1    
    34   17   18 1    
    35   17   86 1    
    36   17   87 1    
    37   18   19 1    
    38   18   37 1    
    39   18   88 1    
    40   19   20 am   BACKBONE|DICT|INTERRES
    41   19   89 1    
    42   20   21 2    
    43   20   22 1    
    44   22   23 1    
    45   22   24 1    
    46   22   90 1    
    47   23   91 1    
    48   23   92 1    
    49   23   93 1    
    50   24   25 am   BACKBONE|DICT|INTERRES
    51   24   94 1    
    52   25   26 2    
    53   25   27 1    
    54   27   28 1    
    55   27   29 1    
    56   27   95 1    
    57   28   96 1    
    58   28   97 1    
    59   28   98 1    
    60   29   30 am   BACKBONE|DICT|INTERRES
    61   29   99 1    
    62   30   31 2    
    63   30   32 1    
    64   32   33 1    
    65   32   34 1    
    66   32  100 1    
    67   33  101 1    
    68   33  102 1    
    69   33  103 1    
    70   34   35 am   BACKBONE|DICT|INTERRES
    71   34  104 1    
    72   35   36 2    
    73   37   38 2    
    74   37   39 am   BACKBONE|DICT|INTERRES
    75   39   40 1    
    76   39  105 1    
    77   40   41 1    
    78   40   42 1    
    79   40  106 1    
    80   41  107 1    
    81   41  108 1    
    82   41  109 1    
    83   42   43 2    
    84   42   44 am   BACKBONE|DICT|INTERRES
    85   44   45 1    
    86   44  110 1    
    87   45   46 1    
    88   45   47 1    
    89   45  111 1    
    90   46  112 1    
    91   46  113 1    
    92   46  114 1    
    93   47   48 2    
    94   47   49 am   BACKBONE|DICT|INTERRES
    95   49   50 1    
    96   49  115 1    
    97   50   51 1    
    98   50   52 1    
    99   50  116 1    
   100   51  117 1    
   101   51  118 1    
   102   51  119 1    
   103   52   53 2    
   104   52   54 am   BACKBONE|DICT|INTERRES
   105   54   55 1    
   106   54  120 1    
   107   55   56 1    
   108   55   57 1    
   109   55  121 1    
   110   56  122 1    
   111   56  123 1    
   112   56  124 1    
   113   57   58 2    
   114   57   59 am   BACKBONE|DICT|INTERRES
   115   59   60 1    
   116   59  125 1    
   117   60   61 1    
   118   60   62 1    
   119   60  126 1    
   120   61  127 1    
   121   61  128 1    
   122   61  129 1    
   123   62   63 2    
   124   62   64 am   BACKBONE|DICT|INTERRES
   125   64   65 1    
   126   64  130 1    
   127   65   66 1    
   128   65   69 1    
   129   65  131 1    
   130   66   67 am   BACKBONE|DICT|INTERRES
   131   66   68 2    
   132   67  132 1    
   133   67  133 1    
   134   69   70 1    
   135   69  134 1    
   136   69  135 1    
   137   70   71 1    
   138   71  136 1    
   139   71  137 1    
@<TRIPOS>SUBSTRUCTURE
     1 UNK         1 GROUP             0       ****    0 ROOT    
