@<TRIPOS>MOLECULE
3R137
137   139    1
SMALL
USER_CHARGES


@<TRIPOS>ATOM
      1 CA         26.5484    0.6036    3.5863 C.3       0 UNK        -0.2020 
      2 C          26.3876    0.4145    2.0851 C.2       0 UNK         0.4855 
      3 O          25.4808    0.9961    1.4882 O.2       0 UNK        -0.5197 
      4 N          27.2652   -0.3866    1.4697 N.am      1 UNK        -0.4892 
      5 CA         27.2184   -0.7456    0.0491 C.3       1 UNK         0.0835 
      6 C6         28.6276   -1.1201   -0.4796 C.3       12 UNK        -0.0855 
      7 S7         29.3367   -2.6349    0.2541 S.3       12 UNK        -0.2931 
      8 C8         30.9541   -2.7099   -0.5835 C.3       12 UNK         0.0378 
      9 C9         30.8638   -2.7315   -2.1077 C.ar      12 UNK        -0.0802 
     10 C10        31.6784   -1.8787   -2.8581 C.ar      12 UNK        -0.0944 
     11 C11        31.6577   -1.9203   -4.2544 C.ar      12 UNK        -0.0787 
     12 C12        30.8003   -2.8106   -4.9061 C.ar      12 UNK        -0.0862 
     13 C13        29.9739   -3.6656   -4.1707 C.ar      12 UNK        -0.0733 
     14 C14        30.0119   -3.6224   -2.7722 C.ar      12 UNK        -0.0832 
     15 C15        29.0779   -4.6718   -4.8801 C.3       12 UNK         0.0240 
     16 S16        27.5594   -3.9069   -5.5301 S.3       12 UNK        -0.2522 
     17 C17        28.0213   -3.5377   -7.2591 C.3       12 UNK        -0.0967 
     18 CA         27.4882   -2.1804   -7.7767 C.3       5 UNK         0.0660 
     19 N          26.0305   -2.0684   -7.6476 N.am      5 UNK        -0.4015 
     20 C          25.2920   -1.1481   -8.2804 C.2       4 UNK         0.4946 
     21 O          25.7649   -0.2861   -9.0185 O.2       4 UNK        -0.5353 
     22 CA         23.7747   -1.1629   -8.0393 C.3       4 UNK         0.0277 
     23 CB         23.1047   -2.2304   -8.9192 C.3       4 UNK        -0.1981 
     24 N          23.3460   -1.3377   -6.6475 N.am      4 UNK        -0.4209 
     25 C          23.7994   -0.6797   -5.5706 C.2       3 UNK         0.4942 
     26 O          24.7834    0.0614   -5.5756 O.2       3 UNK        -0.5208 
     27 CA         23.0044   -0.8422   -4.2614 C.3       3 UNK         0.0250 
     28 CB         21.6238   -1.5198   -4.4297 C.3       3 UNK        -0.1990 
     29 N          23.7864   -1.5067   -3.2155 N.am      3 UNK        -0.4232 
     30 C          24.2963   -2.7468   -3.2474 C.2       2 UNK         0.4993 
     31 O          24.1951   -3.5104   -4.2087 O.2       2 UNK        -0.5286 
     32 CA         25.0357   -3.1923   -1.9771 C.3       2 UNK         0.0209 
     33 CB         25.8254   -4.5062   -2.1404 C.3       2 UNK        -0.1931 
     34 N          25.9295   -2.1307   -1.5110 N.am      2 UNK        -0.4546 
     35 C          26.1690   -1.8490   -0.2249 C.2       1 UNK         0.5154 
     36 O          25.6185   -2.4370    0.7112 O.2       1 UNK        -0.5181 
     37 C          28.2466   -0.9829   -7.1672 C.2       5 UNK         0.5014 
     38 O          29.2843   -0.5907   -7.7052 O.2       5 UNK        -0.5248 
     39 N          27.7102   -0.4049   -6.0848 N.am      6 UNK        -0.4434 
     40 CA         28.2435    0.8016   -5.4568 C.3       6 UNK         0.0363 
     41 CB         27.8000    0.8611   -3.9875 C.3       6 UNK        -0.1936 
     42 C          27.8063    2.0594   -6.2203 C.2       6 UNK         0.5081 
     43 O          28.6220    2.9603   -6.4092 O.2       6 UNK        -0.5248 
     44 N          26.5449    2.0849   -6.6755 N.am      7 UNK        -0.4718 
     45 CA         25.9562    3.1732   -7.4622 C.3       7 UNK         0.0273 
     46 CB         24.4457    2.9374   -7.6170 C.3       7 UNK        -0.1935 
     47 C          26.6253    3.3570   -8.8354 C.2       7 UNK         0.5018 
     48 O          26.9002    4.4919   -9.2263 O.2       7 UNK        -0.5186 
     49 N          26.9049    2.2424   -9.5258 N.am      8 UNK        -0.4240 
     50 CA         27.6504    2.2092  -10.7879 C.3       8 UNK         0.0235 
     51 CB         27.3465    0.8902  -11.5181 C.3       8 UNK        -0.2000 
     52 C          29.1706    2.3710  -10.6027 C.2       8 UNK         0.4941 
     53 O          29.8651    2.5903  -11.5958 O.2       8 UNK        -0.5273 
     54 N          29.6547    2.2454   -9.3569 N.am      9 UNK        -0.4262 
     55 CA         31.0560    2.2803   -8.9293 C.3       9 UNK         0.0264 
     56 CB         31.6573    3.6884   -9.1204 C.3       9 UNK        -0.1955 
     57 C          31.8884    1.1697   -9.5937 C.2       9 UNK         0.5031 
     58 O          32.9241    1.4466  -10.2035 O.2       9 UNK        -0.5390 
     59 N          31.4257   -0.0809   -9.4446 N.am      10 UNK        -0.4204 
     60 CA         32.0438   -1.2928  -10.0014 C.3       10 UNK         0.0237 
     61 CB         31.1451   -2.5013   -9.6920 C.3       10 UNK        -0.1985 
     62 C          33.4806   -1.5546   -9.5095 C.2       10 UNK         0.4970 
     63 O          34.2387   -2.2443  -10.1921 O.2       10 UNK        -0.4914 
     64 N          33.8252   -0.9851   -8.3498 N.am      11 UNK        -0.4285 
     65 CA         35.1745   -0.9555   -7.7738 C.3       11 UNK         0.1007 
     66 C          36.1654   -0.0076   -8.5133 C.2       11 UNK         0.5703 
     67 N          35.7244    0.8625   -9.4159 N.am      11 UNK        -0.7361 
     68 O          37.3671   -0.0701   -8.2658 O.2       11 UNK        -0.4986 
     69 C69        35.1212   -0.6291   -6.2586 C.3       12 UNK        -0.0947 
     70 S70        34.1879   -1.8755   -5.3107 S.3       12 UNK        -0.2240 
     71 C71        32.5951   -1.0336   -5.0557 C.3       12 UNK         0.0194 
     72 H72        26.6855    1.6580    3.8199 H         1 UNK         0.0906 
     73 H73        27.4053    0.0567    3.9769 H         1 UNK         0.0906 
     74 H74        25.6581    0.2528    4.1053 H         1 UNK         0.0906 
     75 H75        27.9643   -0.8761    2.0107 H         1 UNK         0.3140 
     76 H76        26.8899    0.1369   -0.5053 H         1 UNK         0.1085 
     77 H77        29.3181   -0.2940   -0.3026 H         1 UNK         0.0836 
     78 H78        28.5990   -1.2479   -1.5614 H         1 UNK         0.0836 
     79 H79        31.5539   -1.8641   -0.2450 H         1 UNK         0.0731 
     80 H80        31.4772   -3.6076   -0.2530 H         1 UNK         0.0731 
     81 H81        32.3542   -1.1990   -2.3569 H         1 UNK         0.1312 
     82 H82        30.7953   -2.8501   -5.9857 H         1 UNK         0.1406 
     83 H83        29.3870   -4.2914   -2.1961 H         1 UNK         0.1631 
     84 H84        28.7883   -5.4644   -4.1885 H         1 UNK         0.0717 
     85 H85        29.6280   -5.1664   -5.6818 H         1 UNK         0.0717 
     86 H86        29.1033   -3.5911   -7.3831 H         1 UNK         0.0934 
     87 H87        27.6239   -4.3409   -7.8815 H         1 UNK         0.0934 
     88 H88        27.7057   -2.1493   -8.8469 H         1 UNK         0.0739 
     89 H89        25.5784   -2.7237   -7.0248 H         1 UNK         0.3093 
     90 H90        23.3958   -0.1902   -8.3570 H         1 UNK         0.0818 
     91 H91        22.0180   -2.1541   -8.8798 H         1 UNK         0.0819 
     92 H92        23.3958   -2.1152   -9.9645 H         1 UNK         0.0819 
     93 H93        23.3821   -3.2398   -8.6128 H         1 UNK         0.0819 
     94 H94        22.5552   -1.9491   -6.5051 H         1 UNK         0.3041 
     95 H95        22.8219    0.1725   -3.9042 H         1 UNK         0.0784 
     96 H96        21.0085   -0.9891   -5.1577 H         1 UNK         0.0793 
     97 H97        21.7037   -2.5583   -4.7528 H         1 UNK         0.0793 
     98 H98        21.0727   -1.5145   -3.4892 H         1 UNK         0.0793 
     99 H99        23.9534   -0.9552   -2.3855 H         1 UNK         0.3024 
    100 H100       24.2530   -3.3659   -1.2346 H         1 UNK         0.1171 
    101 H101       25.1898   -5.3079   -2.5181 H         1 UNK         0.0786 
    102 H102       26.2337   -4.8408   -1.1867 H         1 UNK         0.0786 
    103 H103       26.6574   -4.3898   -2.8326 H         1 UNK         0.0786 
    104 H104       26.4104   -1.6132   -2.2333 H         1 UNK         0.2977 
    105 H105       26.8127   -0.7340   -5.7513 H         1 UNK         0.3127 
    106 H106       29.3350    0.7567   -5.4755 H         1 UNK         0.0770 
    107 H107       26.7152    0.9093   -3.8881 H         1 UNK         0.0814 
    108 H108       28.2136    1.7402   -3.4918 H         1 UNK         0.0814 
    109 H109       28.1520   -0.0138   -3.4444 H         1 UNK         0.0814 
    110 H110       25.9311    1.3106   -6.4324 H         1 UNK         0.2983 
    111 H111       26.1002    4.0987   -6.9003 H         1 UNK         0.0947 
    112 H112       23.9744    3.7653   -8.1482 H         1 UNK         0.0806 
    113 H113       23.9550    2.8514   -6.6473 H         1 UNK         0.0806 
    114 H114       24.2364    2.0282   -8.1799 H         1 UNK         0.0806 
    115 H115       26.5776    1.3443   -9.1704 H         1 UNK         0.3000 
    116 H116       27.3071    3.0344  -11.4155 H         1 UNK         0.0850 
    117 H117       27.8335    0.8606  -12.4937 H         1 UNK         0.0810 
    118 H118       26.2765    0.7661  -11.6858 H         1 UNK         0.0810 
    119 H119       27.6990    0.0272  -10.9514 H         1 UNK         0.0810 
    120 H120       28.9861    2.0775   -8.6171 H         1 UNK         0.3040 
    121 H121       31.0538    2.0669   -7.8593 H         1 UNK         0.0766 
    122 H122       31.7202    3.9652  -10.1731 H         1 UNK         0.0812 
    123 H123       31.0612    4.4444   -8.6093 H         1 UNK         0.0812 
    124 H124       32.6669    3.7394   -8.7111 H         1 UNK         0.0812 
    125 H125       30.5823   -0.2209   -8.8860 H         1 UNK         0.3205 
    126 H126       32.0910   -1.1655  -11.0846 H         1 UNK         0.0754 
    127 H127       31.5465   -3.4125  -10.1375 H         1 UNK         0.0769 
    128 H128       30.1398   -2.3619  -10.0899 H         1 UNK         0.0769 
    129 H129       31.0615   -2.6721   -8.6184 H         1 UNK         0.0769 
    130 H130       33.1308   -0.4348   -7.8716 H         1 UNK         0.2981 
    131 H131       35.5928   -1.9582   -7.8802 H         1 UNK         0.0541 
    132 H132       34.7379    0.9399   -9.6421 H         1 UNK         0.3459 
    133 H133       36.3881    1.4599   -9.8820 H         1 UNK         0.3459 
    134 H134       34.6950    0.3614   -6.0890 H         1 UNK         0.0612 
    135 H135       36.1284   -0.6010   -5.8390 H         1 UNK         0.0612 
    136 H136       32.7587   -0.0896   -4.5337 H         1 UNK         0.0624 
    137 H137       32.1448   -0.7864   -6.0179 H         1 UNK         0.0624 
@<TRIPOS>BOND
     1    1    2 1    
     2    1   72 1    
     3    1   73 1    
     4    1   74 1    
     5    2    3 2    
     6    2    4 am   BACKBONE|DICT|INTERRES
     7    4    5 1    
     8    4   75 1    
     9    5    6 1    
    10    5   35 1    
    11    5   76 1    
    12    6    7 1    
    13    6   77 1    
    14    6   78 1    
    15    7    8 1    
    16    8    9 1    
    17    8   79 1    
    18    8   80 1    
    19    9   10 ar   
    20    9   14 ar   
    21   10   11 ar   
    22   10   81 1    
    23   11   12 ar   
    24   11   71 1    
    25   12   13 ar   
    26   12   82 1    
    27   13   14 ar   
    28   13   15 1    
    29   14   83 1    
    30   15   16 1    
    31   15   84 1    
    32   15   85 1    
    33   16   17 1    
    34   17   18 1    
    35   17   86 1    
    36   17   87 1    
    37   18   19 1    
    38   18   37 1    
    39   18   88 1    
    40   19   20 am   BACKBONE|DICT|INTERRES
    41   19   89 1    
    42   20   21 2    
    43   20   22 1    
    44   22   23 1    
    45   22   24 1    
    46   22   90 1    
    47   23   91 1    
    48   23   92 1    
    49   23   93 1    
    50   24   25 am   BACKBONE|DICT|INTERRES
    51   24   94 1    
    52   25   26 2    
    53   25   27 1    
    54   27   28 1    
    55   27   29 1    
    56   27   95 1    
    57   28   96 1    
    58   28   97 1    
    59   28   98 1    
    60   29   30 am   BACKBONE|DICT|INTERRES
    61   29   99 1    
    62   30   31 2    
    63   30   32 1    
    64   32   33 1    
    65   32   34 1    
    66   32  100 1    
    67   33  101 1    
    68   33  102 1    
    69   33  103 1    
    70   34   35 am   BACKBONE|DICT|INTERRES
    71   34  104 1    
    72   35   36 2    
    73   37   38 2    
    74   37   39 am   BACKBONE|DICT|INTERRES
    75   39   40 1    
    76   39  105 1    
    77   40   41 1    
    78   40   42 1    
    79   40  106 1    
    80   41  107 1    
    81   41  108 1    
    82   41  109 1    
    83   42   43 2    
    84   42   44 am   BACKBONE|DICT|INTERRES
    85   44   45 1    
    86   44  110 1    
    87   45   46 1    
    88   45   47 1    
    89   45  111 1    
    90   46  112 1    
    91   46  113 1    
    92   46  114 1    
    93   47   48 2    
    94   47   49 am   BACKBONE|DICT|INTERRES
    95   49   50 1    
    96   49  115 1    
    97   50   51 1    
    98   50   52 1    
    99   50  116 1    
   100   51  117 1    
   101   51  118 1    
   102   51  119 1    
   103   52   53 2    
   104   52   54 am   BACKBONE|DICT|INTERRES
   105   54   55 1    
   106   54  120 1    
   107   55   56 1    
   108   55   57 1    
   109   55  121 1    
   110   56  122 1    
   111   56  123 1    
   112   56  124 1    
   113   57   58 2    
   114   57   59 am   BACKBONE|DICT|INTERRES
   115   59   60 1    
   116   59  125 1    
   117   60   61 1    
   118   60   62 1    
   119   60  126 1    
   120   61  127 1    
   121   61  128 1    
   122   61  129 1    
   123   62   63 2    
   124   62   64 am   BACKBONE|DICT|INTERRES
   125   64   65 1    
   126   64  130 1    
   127   65   66 1    
   128   65   69 1    
   129   65  131 1    
   130   66   67 am   BACKBONE|DICT|INTERRES
   131   66   68 2    
   132   67  132 1    
   133   67  133 1    
   134   69   70 1    
   135   69  134 1    
   136   69  135 1    
   137   70   71 1    
   138   71  136 1    
   139   71  137 1    
@<TRIPOS>SUBSTRUCTURE
     1 UNK         1 GROUP             0       ****    0 ROOT    
