@<TRIPOS>MOLECULE
3R137
137   139    1
SMALL
USER_CHARGES


@<TRIPOS>ATOM
      1 CA         26.8528   -4.1407    3.3756 C.3       0 UNK        -0.2020 
      2 C          27.4920   -3.3032    2.2778 C.2       0 UNK         0.4855 
      3 O          28.1100   -2.2787    2.5707 O.2       0 UNK        -0.5197 
      4 N          27.3577   -3.7356    1.0184 N.am      1 UNK        -0.4892 
      5 CA         27.8634   -3.0319   -0.1657 C.3       1 UNK         0.0835 
      6 C6         27.8948   -3.9467   -1.4137 C.3       12 UNK        -0.0855 
      7 S7         28.9445   -5.4222   -1.1855 S.3       12 UNK        -0.2931 
      8 C8         30.5735   -4.8180   -1.7566 C.3       12 UNK         0.0378 
      9 C9         30.6337   -4.3690   -3.2179 C.ar      12 UNK        -0.0802 
     10 C10        31.6043   -3.4348   -3.5973 C.ar      12 UNK        -0.0944 
     11 C11        31.7105   -3.0132   -4.9257 C.ar      12 UNK        -0.0787 
     12 C12        30.8118   -3.5083   -5.8731 C.ar      12 UNK        -0.0862 
     13 C13        29.8371   -4.4438   -5.5180 C.ar      12 UNK        -0.0733 
     14 C14        29.7708   -4.8875   -4.1932 C.ar      12 UNK        -0.0832 
     15 C15        28.9029   -4.9966   -6.5919 C.3       12 UNK         0.0240 
     16 S16        27.1690   -5.2122   -6.0594 S.3       12 UNK        -0.2522 
     17 C17        26.6889   -3.5324   -5.5396 C.3       12 UNK        -0.0967 
     18 CA         26.4296   -2.5734   -6.7366 C.3       5 UNK         0.0660 
     19 N          25.1688   -1.8398   -6.5978 N.am      5 UNK        -0.4015 
     20 C          24.6236   -1.0553   -7.5401 C.2       4 UNK         0.4946 
     21 O          25.1054   -0.8871   -8.6594 O.2       4 UNK        -0.5353 
     22 CA         23.3321   -0.3071   -7.1691 C.3       4 UNK         0.0277 
     23 CB         22.1007   -1.1195   -7.6004 C.3       4 UNK        -0.1981 
     24 N          23.2273    0.0175   -5.7451 N.am      4 UNK        -0.4209 
     25 C          24.0703    0.8056   -5.0624 C.2       3 UNK         0.4942 
     26 O          25.0354    1.3785   -5.5749 O.2       3 UNK        -0.5208 
     27 CA         23.7840    0.9789   -3.5556 C.3       3 UNK         0.0250 
     28 CB         22.8512   -0.1071   -2.9694 C.3       3 UNK        -0.1990 
     29 N          24.9952    1.0709   -2.7329 N.am      3 UNK        -0.4232 
     30 C          26.0228    0.2097   -2.6855 C.2       2 UNK         0.4993 
     31 O          26.1646   -0.7467   -3.4559 O.2       2 UNK        -0.5286 
     32 CA         27.0904    0.4723   -1.5988 C.3       2 UNK         0.0209 
     33 CB         26.5993    1.3547   -0.4260 C.3       2 UNK        -0.1931 
     34 N          27.6764   -0.7777   -1.0974 N.am      2 UNK        -0.4546 
     35 C          27.0300   -1.7693   -0.4651 C.2       1 UNK         0.5154 
     36 O          25.8342   -1.7361   -0.1580 O.2       1 UNK        -0.5181 
     37 C          27.6047   -1.6015   -6.9463 C.2       5 UNK         0.5014 
     38 O          28.3252   -1.7109   -7.9417 O.2       5 UNK        -0.5248 
     39 N          27.7421   -0.6373   -6.0242 N.am      6 UNK        -0.4434 
     40 CA         28.7665    0.4009   -6.1013 C.3       6 UNK         0.0363 
     41 CB         28.8882    1.1424   -4.7662 C.3       6 UNK        -0.1936 
     42 C          28.5397    1.3832   -7.2546 C.2       6 UNK         0.5081 
     43 O          29.5183    1.8040   -7.8664 O.2       6 UNK        -0.5248 
     44 N          27.2749    1.7042   -7.5644 N.am      7 UNK        -0.4718 
     45 CA         26.9076    2.5450   -8.7083 C.3       7 UNK         0.0273 
     46 CB         25.4050    2.8594   -8.6701 C.3       7 UNK        -0.1935 
     47 C          27.2989    1.9221  -10.0605 C.2       7 UNK         0.5018 
     48 O          27.7839    2.6425  -10.9335 O.2       7 UNK        -0.5186 
     49 N          27.1063    0.6022  -10.2019 N.am      8 UNK        -0.4240 
     50 CA         27.5105   -0.1688  -11.3784 C.3       8 UNK         0.0235 
     51 CB         26.8357   -1.5500  -11.3536 C.3       8 UNK        -0.2000 
     52 C          29.0363   -0.3122  -11.4950 C.2       8 UNK         0.4941 
     53 O          29.5762   -0.1209  -12.5855 O.2       8 UNK        -0.5273 
     54 N          29.7024   -0.6513  -10.3818 N.am      9 UNK        -0.4262 
     55 CA         31.1538   -0.8569  -10.3293 C.3       9 UNK         0.0264 
     56 CB         31.4993   -1.6668   -9.0733 C.3       9 UNK        -0.1955 
     57 C          31.9778    0.4419  -10.3653 C.2       9 UNK         0.5031 
     58 O          33.1399    0.3959  -10.7712 O.2       9 UNK        -0.5390 
     59 N          31.3813    1.5545   -9.9147 N.am      10 UNK        -0.4204 
     60 CA         31.9809    2.8774   -9.7051 C.3       10 UNK         0.0237 
     61 CB         32.4944    3.4849  -11.0287 C.3       10 UNK        -0.1985 
     62 C          33.0332    2.8919   -8.5762 C.2       10 UNK         0.4970 
     63 O          33.9442    3.7219   -8.6073 O.2       10 UNK        -0.4914 
     64 N          32.8922    1.9850   -7.5991 N.am      11 UNK        -0.4285 
     65 CA         33.7366    1.9121   -6.3990 C.3       11 UNK         0.1007 
     66 C          33.3082    2.9232   -5.2979 C.2       11 UNK         0.5703 
     67 N          34.1646    3.1632   -4.3136 N.am      11 UNK        -0.7361 
     68 O          32.2136    3.4843   -5.3154 O.2       11 UNK        -0.4986 
     69 C69        33.8759    0.4566   -5.8740 C.3       12 UNK        -0.0947 
     70 S70        32.3209   -0.3303   -5.3331 S.3       12 UNK        -0.2240 
     71 C71        32.8310   -2.0741   -5.3516 C.3       12 UNK         0.0194 
     72 H72        26.3553   -5.0248    2.9772 H         1 UNK         0.0906 
     73 H73        27.6107   -4.4699    4.0861 H         1 UNK         0.0906 
     74 H74        26.1132   -3.5498    3.9152 H         1 UNK         0.0906 
     75 H75        26.8334   -4.5784    0.8314 H         1 UNK         0.3140 
     76 H76        28.8852   -2.7124    0.0520 H         1 UNK         0.1085 
     77 H77        28.2386   -3.3929   -2.2892 H         1 UNK         0.0836 
     78 H78        26.8872   -4.2875   -1.6606 H         1 UNK         0.0836 
     79 H79        30.8795   -3.9987   -1.1042 H         1 UNK         0.0731 
     80 H80        31.3048   -5.6143   -1.6129 H         1 UNK         0.0731 
     81 H81        32.2962   -3.0493   -2.8606 H         1 UNK         0.1312 
     82 H82        30.8869   -3.1825   -6.8981 H         1 UNK         0.1406 
     83 H83        29.0360   -5.6333   -3.9247 H         1 UNK         0.1631 
     84 H84        29.2865   -5.9654   -6.9137 H         1 UNK         0.0717 
     85 H85        28.9139   -4.3579   -7.4763 H         1 UNK         0.0717 
     86 H86        27.4240   -3.1428   -4.8318 H         1 UNK         0.0934 
     87 H87        25.7811   -3.6539   -4.9465 H         1 UNK         0.0934 
     88 H88        26.3346   -3.1609   -7.6526 H         1 UNK         0.0739 
     89 H89        24.7205   -1.8805   -5.6945 H         1 UNK         0.3093 
     90 H90        23.3245    0.6342   -7.7197 H         1 UNK         0.0818 
     91 H91        21.1779   -0.5646   -7.4296 H         1 UNK         0.0819 
     92 H92        22.1423   -1.3528   -8.6655 H         1 UNK         0.0819 
     93 H93        22.0298   -2.0659   -7.0627 H         1 UNK         0.0819 
     94 H94        22.4586   -0.4017   -5.2418 H         1 UNK         0.3041 
     95 H95        23.2774    1.9401   -3.4586 H         1 UNK         0.0784 
     96 H96        21.8620   -0.0842   -3.4281 H         1 UNK         0.0793 
     97 H97        23.2628   -1.1092   -3.0995 H         1 UNK         0.0793 
     98 H98        22.6998    0.0447   -1.9004 H         1 UNK         0.0793 
     99 H99        25.0159    1.8495   -2.0899 H         1 UNK         0.3024 
    100 H100       27.8988    1.0151   -2.0870 H         1 UNK         0.1171 
    101 H101       27.3658    1.4442    0.3441 H         1 UNK         0.0786 
    102 H102       25.7048    0.9477    0.0476 H         1 UNK         0.0786 
    103 H103       26.3693    2.3682   -0.7564 H         1 UNK         0.0786 
    104 H104       28.6474   -0.9211   -1.3370 H         1 UNK         0.2977 
    105 H105       27.1025   -0.6071   -5.2344 H         1 UNK         0.3127 
    106 H106       29.7132   -0.1015   -6.2968 H         1 UNK         0.0770 
    107 H107       27.9590    1.6477   -4.5017 H         1 UNK         0.0814 
    108 H108       29.6719    1.9003   -4.8147 H         1 UNK         0.0814 
    109 H109       29.1573    0.4541   -3.9658 H         1 UNK         0.0814 
    110 H110       26.5211    1.3646   -6.9741 H         1 UNK         0.2983 
    111 H111       27.4533    3.4860   -8.6091 H         1 UNK         0.0947 
    112 H112       25.1394    3.5762   -9.4481 H         1 UNK         0.0806 
    113 H113       25.1101    3.2924   -7.7140 H         1 UNK         0.0806 
    114 H114       24.8055    1.9657   -8.8367 H         1 UNK         0.0806 
    115 H115       26.6402    0.0891   -9.4583 H         1 UNK         0.3000 
    116 H116       27.1588    0.3617  -12.2660 H         1 UNK         0.0850 
    117 H117       27.1245   -2.1435  -12.2220 H         1 UNK         0.0810 
    118 H118       25.7495   -1.4585  -11.3695 H         1 UNK         0.0810 
    119 H119       27.1076   -2.1175  -10.4624 H         1 UNK         0.0810 
    120 H120       29.1769   -0.8448   -9.5325 H         1 UNK         0.3040 
    121 H121       31.4461   -1.4481  -11.2000 H         1 UNK         0.0766 
    122 H122       32.5744   -1.8336   -8.9920 H         1 UNK         0.0812 
    123 H123       31.1759   -1.1556   -8.1659 H         1 UNK         0.0812 
    124 H124       31.0199   -2.6450   -9.1033 H         1 UNK         0.0812 
    125 H125       30.4517    1.4601   -9.5127 H         1 UNK         0.3205 
    126 H126       31.1671    3.5134   -9.3536 H         1 UNK         0.0754 
    127 H127       32.7762    4.5300  -10.8951 H         1 UNK         0.0769 
    128 H128       31.7268    3.4540  -11.8021 H         1 UNK         0.0769 
    129 H129       33.3724    2.9592  -11.4046 H         1 UNK         0.0769 
    130 H130       32.0726    1.3958   -7.6003 H         1 UNK         0.2981 
    131 H131       34.7407    2.2187   -6.6990 H         1 UNK         0.0541 
    132 H132       35.0646    2.7104   -4.2813 H         1 UNK         0.3459 
    133 H133       33.9041    3.8117   -3.5874 H         1 UNK         0.3459 
    134 H134       34.3146   -0.1589   -6.6610 H         1 UNK         0.0612 
    135 H135       34.5831    0.4168   -5.0440 H         1 UNK         0.0612 
    136 H136       33.1690   -2.3378   -6.3549 H         1 UNK         0.0624 
    137 H137       33.6936   -2.1997   -4.6952 H         1 UNK         0.0624 
@<TRIPOS>BOND
     1    1    2 1    
     2    1   72 1    
     3    1   73 1    
     4    1   74 1    
     5    2    3 2    
     6    2    4 am   BACKBONE|DICT|INTERRES
     7    4    5 1    
     8    4   75 1    
     9    5    6 1    
    10    5   35 1    
    11    5   76 1    
    12    6    7 1    
    13    6   77 1    
    14    6   78 1    
    15    7    8 1    
    16    8    9 1    
    17    8   79 1    
    18    8   80 1    
    19    9   10 ar   
    20    9   14 ar   
    21   10   11 ar   
    22   10   81 1    
    23   11   12 ar   
    24   11   71 1    
    25   12   13 ar   
    26   12   82 1    
    27   13   14 ar   
    28   13   15 1    
    29   14   83 1    
    30   15   16 1    
    31   15   84 1    
    32   15   85 1    
    33   16   17 1    
    34   17   18 1    
    35   17   86 1    
    36   17   87 1    
    37   18   19 1    
    38   18   37 1    
    39   18   88 1    
    40   19   20 am   BACKBONE|DICT|INTERRES
    41   19   89 1    
    42   20   21 2    
    43   20   22 1    
    44   22   23 1    
    45   22   24 1    
    46   22   90 1    
    47   23   91 1    
    48   23   92 1    
    49   23   93 1    
    50   24   25 am   BACKBONE|DICT|INTERRES
    51   24   94 1    
    52   25   26 2    
    53   25   27 1    
    54   27   28 1    
    55   27   29 1    
    56   27   95 1    
    57   28   96 1    
    58   28   97 1    
    59   28   98 1    
    60   29   30 am   BACKBONE|DICT|INTERRES
    61   29   99 1    
    62   30   31 2    
    63   30   32 1    
    64   32   33 1    
    65   32   34 1    
    66   32  100 1    
    67   33  101 1    
    68   33  102 1    
    69   33  103 1    
    70   34   35 am   BACKBONE|DICT|INTERRES
    71   34  104 1    
    72   35   36 2    
    73   37   38 2    
    74   37   39 am   BACKBONE|DICT|INTERRES
    75   39   40 1    
    76   39  105 1    
    77   40   41 1    
    78   40   42 1    
    79   40  106 1    
    80   41  107 1    
    81   41  108 1    
    82   41  109 1    
    83   42   43 2    
    84   42   44 am   BACKBONE|DICT|INTERRES
    85   44   45 1    
    86   44  110 1    
    87   45   46 1    
    88   45   47 1    
    89   45  111 1    
    90   46  112 1    
    91   46  113 1    
    92   46  114 1    
    93   47   48 2    
    94   47   49 am   BACKBONE|DICT|INTERRES
    95   49   50 1    
    96   49  115 1    
    97   50   51 1    
    98   50   52 1    
    99   50  116 1    
   100   51  117 1    
   101   51  118 1    
   102   51  119 1    
   103   52   53 2    
   104   52   54 am   BACKBONE|DICT|INTERRES
   105   54   55 1    
   106   54  120 1    
   107   55   56 1    
   108   55   57 1    
   109   55  121 1    
   110   56  122 1    
   111   56  123 1    
   112   56  124 1    
   113   57   58 2    
   114   57   59 am   BACKBONE|DICT|INTERRES
   115   59   60 1    
   116   59  125 1    
   117   60   61 1    
   118   60   62 1    
   119   60  126 1    
   120   61  127 1    
   121   61  128 1    
   122   61  129 1    
   123   62   63 2    
   124   62   64 am   BACKBONE|DICT|INTERRES
   125   64   65 1    
   126   64  130 1    
   127   65   66 1    
   128   65   69 1    
   129   65  131 1    
   130   66   67 am   BACKBONE|DICT|INTERRES
   131   66   68 2    
   132   67  132 1    
   133   67  133 1    
   134   69   70 1    
   135   69  134 1    
   136   69  135 1    
   137   70   71 1    
   138   71  136 1    
   139   71  137 1    
@<TRIPOS>SUBSTRUCTURE
     1 UNK         1 GROUP             0       ****    0 ROOT    
