@<TRIPOS>MOLECULE
3R137
137   139    1
SMALL
USER_CHARGES


@<TRIPOS>ATOM
      1 CA         22.0759   -5.7751   -3.7284 C.3       0 UNK        -0.2020 
      2 C          23.0441   -4.7074   -3.2423 C.2       0 UNK         0.4855 
      3 O          22.7565   -4.0184   -2.2646 O.2       0 UNK        -0.5197 
      4 N          24.1841   -4.5542   -3.9260 N.am      1 UNK        -0.4892 
      5 CA         25.2596   -3.6044   -3.6058 C.3       1 UNK         0.0835 
      6 C6         26.6581   -4.2233   -3.8527 C.3       12 UNK        -0.0855 
      7 S7         26.8770   -4.9287   -5.5198 S.3       12 UNK        -0.2931 
      8 C8         28.4957   -5.7385   -5.3520 C.3       12 UNK         0.0378 
      9 C9         29.6145   -4.7360   -5.1090 C.ar      12 UNK        -0.0802 
     10 C10        30.1598   -4.0155   -6.1762 C.ar      12 UNK        -0.0944 
     11 C11        31.2186   -3.1266   -5.9652 C.ar      12 UNK        -0.0787 
     12 C12        31.7238   -2.9557   -4.6729 C.ar      12 UNK        -0.0862 
     13 C13        31.1681   -3.6498   -3.5938 C.ar      12 UNK        -0.0733 
     14 C14        30.1195   -4.5452   -3.8192 C.ar      12 UNK        -0.0832 
     15 C15        31.7074   -3.4414   -2.1851 C.3       12 UNK         0.0240 
     16 S16        30.5663   -2.4684   -1.1486 S.3       12 UNK        -0.2522 
     17 C17        30.4632   -0.9014   -2.0755 C.3       12 UNK        -0.0967 
     18 CA         29.1051   -0.7231   -2.8147 C.3       5 UNK         0.0660 
     19 N          28.0484   -0.2424   -1.9306 N.am      5 UNK        -0.4015 
     20 C          27.2060   -0.9837   -1.2076 C.2       4 UNK         0.4946 
     21 O          27.2039   -2.2140   -1.1846 O.2       4 UNK        -0.5353 
     22 CA         26.1683   -0.2223   -0.3649 C.3       4 UNK         0.0277 
     23 CB         26.8278    0.5344    0.8058 C.3       4 UNK        -0.1981 
     24 N          25.2901    0.6483   -1.1569 N.am      4 UNK        -0.4209 
     25 C          25.5877    1.7567   -1.8492 C.2       3 UNK         0.4942 
     26 O          26.7139    2.2548   -1.9043 O.2       3 UNK        -0.5208 
     27 CA         24.4257    2.3700   -2.6568 C.3       3 UNK         0.0250 
     28 CB         24.7340    3.7910   -3.1645 C.3       3 UNK        -0.1990 
     29 N          24.0732    1.5082   -3.7902 N.am      3 UNK        -0.4232 
     30 C          23.4006    0.3544   -3.6837 C.2       2 UNK         0.4993 
     31 O          22.9014   -0.0361   -2.6253 O.2       2 UNK        -0.5286 
     32 CA         23.2891   -0.5482   -4.9261 C.3       2 UNK         0.0209 
     33 CB         23.9296    0.0238   -6.2100 C.3       2 UNK        -0.1931 
     34 N          23.8076   -1.8831   -4.6020 N.am      2 UNK        -0.4546 
     35 C          25.0638   -2.2128   -4.2584 C.2       1 UNK         0.5154 
     36 O          26.0312   -1.4606   -4.4114 O.2       1 UNK        -0.5181 
     37 C          29.1990    0.3061   -3.9494 C.2       5 UNK         0.5014 
     38 O          30.0808    1.1665   -3.9066 O.2       5 UNK        -0.5248 
     39 N          28.2628    0.2525   -4.9071 N.am      6 UNK        -0.4434 
     40 CA         28.2105    1.2019   -6.0254 C.3       6 UNK         0.0363 
     41 CB         27.4248    2.4551   -5.5993 C.3       6 UNK        -0.1936 
     42 C          27.6491    0.6157   -7.3306 C.2       6 UNK         0.5081 
     43 O          27.5001    1.3695   -8.2922 O.2       6 UNK        -0.5248 
     44 N          27.3309   -0.6867   -7.3768 N.am      7 UNK        -0.4718 
     45 CA         26.6188   -1.3144   -8.5010 C.3       7 UNK         0.0273 
     46 CB         26.2475   -2.7555   -8.1355 C.3       7 UNK        -0.1935 
     47 C          27.3522   -1.2820   -9.8542 C.2       7 UNK         0.5018 
     48 O          26.6870   -1.2519  -10.8902 O.2       7 UNK        -0.5186 
     49 N          28.6914   -1.2696   -9.8292 N.am      8 UNK        -0.4240 
     50 CA         29.5372   -1.1405  -11.0210 C.3       8 UNK         0.0235 
     51 CB         30.7681   -2.0530  -10.8730 C.3       8 UNK        -0.2000 
     52 C          29.9636    0.3158  -11.2878 C.2       8 UNK         0.4941 
     53 O          30.7859    0.5363  -12.1791 O.2       8 UNK        -0.5273 
     54 N          29.4431    1.2791  -10.5089 N.am      9 UNK        -0.4262 
     55 CA         29.7566    2.7145  -10.4836 C.3       9 UNK         0.0264 
     56 CB         29.4412    3.4017  -11.8273 C.3       9 UNK        -0.1955 
     57 C          31.1876    3.0161  -10.0094 C.2       9 UNK         0.5031 
     58 O          31.3622    3.7090   -9.0066 O.2       9 UNK        -0.5390 
     59 N          32.1877    2.4571  -10.6992 N.am      10 UNK        -0.4204 
     60 CA         33.6180    2.5700  -10.4020 C.3       10 UNK         0.0237 
     61 CB         34.4096    2.3590  -11.7065 C.3       10 UNK        -0.1985 
     62 C          34.0643    1.6137   -9.2751 C.2       10 UNK         0.4970 
     63 O          35.1038    0.9630   -9.3963 O.2       10 UNK        -0.4914 
     64 N          33.2697    1.5391   -8.2020 N.am      11 UNK        -0.4285 
     65 CA         33.5240    0.7104   -7.0139 C.3       11 UNK         0.1007 
     66 C          34.5152    1.3448   -5.9955 C.2       11 UNK         0.5703 
     67 N          34.9216    2.6000   -6.1490 N.am      11 UNK        -0.7361 
     68 O          34.9369    0.6773   -5.0541 O.2       11 UNK        -0.4986 
     69 C69        32.2009    0.2911   -6.3222 C.3       12 UNK        -0.0947 
     70 S70        31.1336   -0.7329   -7.3892 S.3       12 UNK        -0.2240 
     71 C71        31.8438   -2.3919   -7.1422 C.3       12 UNK         0.0194 
     72 H72        22.4534   -6.2995   -4.6062 H         1 UNK         0.0906 
     73 H73        21.9041   -6.5105   -2.9428 H         1 UNK         0.0906 
     74 H74        21.1183   -5.3244   -3.9882 H         1 UNK         0.0906 
     75 H75        24.3679   -5.1347   -4.7339 H         1 UNK         0.3140 
     76 H76        25.2127   -3.3986   -2.5341 H         1 UNK         0.1085 
     77 H77        27.4455   -3.4939   -3.6628 H         1 UNK         0.0836 
     78 H78        26.8238   -5.0210   -3.1271 H         1 UNK         0.0836 
     79 H79        28.4516   -6.4730   -4.5462 H         1 UNK         0.0731 
     80 H80        28.7037   -6.3009   -6.2634 H         1 UNK         0.0731 
     81 H81        29.7688   -4.1610   -7.1740 H         1 UNK         0.1312 
     82 H82        32.5547   -2.2857   -4.5050 H         1 UNK         0.1406 
     83 H83        29.6953   -5.0897   -2.9863 H         1 UNK         0.1631 
     84 H84        32.6795   -2.9465   -2.2099 H         1 UNK         0.0717 
     85 H85        31.8720   -4.4113   -1.7136 H         1 UNK         0.0717 
     86 H86        30.6329   -0.0748   -1.3833 H         1 UNK         0.0934 
     87 H87        31.3000   -0.8657   -2.7751 H         1 UNK         0.0934 
     88 H88        28.8123   -1.6727   -3.2656 H         1 UNK         0.0739 
     89 H89        27.8931    0.7639   -1.9343 H         1 UNK         0.3093 
     90 H90        25.5107   -0.9765    0.0710 H         1 UNK         0.0818 
     91 H91        26.0789    0.9939    1.4507 H         1 UNK         0.0819 
     92 H92        27.4142   -0.1463    1.4245 H         1 UNK         0.0819 
     93 H93        27.5019    1.3204    0.4647 H         1 UNK         0.0819 
     94 H94        24.3452    0.2957   -1.2863 H         1 UNK         0.3041 
     95 H95        23.5644    2.4442   -1.9889 H         1 UNK         0.0784 
     96 H96        24.9569    4.4583   -2.3309 H         1 UNK         0.0793 
     97 H97        25.5941    3.8145   -3.8323 H         1 UNK         0.0793 
     98 H98        23.8832    4.2151   -3.6980 H         1 UNK         0.0793 
     99 H99        24.4682    1.7516   -4.6857 H         1 UNK         0.3024 
    100 H100       22.2211   -0.6669   -5.1161 H         1 UNK         0.1171 
    101 H101       23.4495    0.9565   -6.5084 H         1 UNK         0.0786 
    102 H102       23.8151   -0.6717   -7.0411 H         1 UNK         0.0786 
    103 H103       24.9927    0.2220   -6.0908 H         1 UNK         0.0786 
    104 H104       23.1011   -2.5771   -4.4012 H         1 UNK         0.2977 
    105 H105       27.4957   -0.4142   -4.8146 H         1 UNK         0.3127 
    106 H106       29.2271    1.5130   -6.2737 H         1 UNK         0.0770 
    107 H107       26.3831    2.2145   -5.3963 H         1 UNK         0.0814 
    108 H108       27.4395    3.2169   -6.3797 H         1 UNK         0.0814 
    109 H109       27.8479    2.9072   -4.7019 H         1 UNK         0.0814 
    110 H110       27.4960   -1.2651   -6.5655 H         1 UNK         0.2983 
    111 H111       25.6908   -0.7564   -8.6414 H         1 UNK         0.0947 
    112 H112       25.6740   -3.2286   -8.9338 H         1 UNK         0.0806 
    113 H113       25.6333   -2.7900   -7.2360 H         1 UNK         0.0806 
    114 H114       27.1366   -3.3642   -7.9693 H         1 UNK         0.0806 
    115 H115       29.1597   -1.2781   -8.9326 H         1 UNK         0.3000 
    116 H116       28.9850   -1.4754  -11.9016 H         1 UNK         0.0850 
    117 H117       31.3132   -2.1220  -11.8152 H         1 UNK         0.0810 
    118 H118       31.4682   -1.6747  -10.1291 H         1 UNK         0.0810 
    119 H119       30.4851   -3.0671  -10.5903 H         1 UNK         0.0810 
    120 H120       28.7682    1.0006   -9.8024 H         1 UNK         0.3040 
    121 H121       29.0855    3.1448   -9.7383 H         1 UNK         0.0766 
    122 H122       28.4029    3.2413  -12.1172 H         1 UNK         0.0812 
    123 H123       30.0738    3.0402  -12.6382 H         1 UNK         0.0812 
    124 H124       29.5943    4.4793  -11.7557 H         1 UNK         0.0812 
    125 H125       31.9193    1.8200  -11.4475 H         1 UNK         0.3205 
    126 H126       33.8204    3.5845  -10.0525 H         1 UNK         0.0754 
    127 H127       35.4791    2.5026  -11.5466 H         1 UNK         0.0769 
    128 H128       34.1026    3.0684  -12.4753 H         1 UNK         0.0769 
    129 H129       34.2687    1.3528  -12.1036 H         1 UNK         0.0769 
    130 H130       32.4537    2.1386   -8.1712 H         1 UNK         0.2981 
    131 H131       34.0150   -0.2043   -7.3499 H         1 UNK         0.0541 
    132 H132       34.5834    3.1584   -6.9157 H         1 UNK         0.3459 
    133 H133       35.5691    2.9931   -5.4842 H         1 UNK         0.3459 
    134 H134       31.6393    1.1822   -6.0407 H         1 UNK         0.0612 
    135 H135       32.3883   -0.2464   -5.3936 H         1 UNK         0.0612 
    136 H136       32.9242   -2.3215   -7.0110 H         1 UNK         0.0624 
    137 H137       31.6930   -2.9710   -8.0540 H         1 UNK         0.0624 
@<TRIPOS>BOND
     1    1    2 1    
     2    1   72 1    
     3    1   73 1    
     4    1   74 1    
     5    2    3 2    
     6    2    4 am   BACKBONE|DICT|INTERRES
     7    4    5 1    
     8    4   75 1    
     9    5    6 1    
    10    5   35 1    
    11    5   76 1    
    12    6    7 1    
    13    6   77 1    
    14    6   78 1    
    15    7    8 1    
    16    8    9 1    
    17    8   79 1    
    18    8   80 1    
    19    9   10 ar   
    20    9   14 ar   
    21   10   11 ar   
    22   10   81 1    
    23   11   12 ar   
    24   11   71 1    
    25   12   13 ar   
    26   12   82 1    
    27   13   14 ar   
    28   13   15 1    
    29   14   83 1    
    30   15   16 1    
    31   15   84 1    
    32   15   85 1    
    33   16   17 1    
    34   17   18 1    
    35   17   86 1    
    36   17   87 1    
    37   18   19 1    
    38   18   37 1    
    39   18   88 1    
    40   19   20 am   BACKBONE|DICT|INTERRES
    41   19   89 1    
    42   20   21 2    
    43   20   22 1    
    44   22   23 1    
    45   22   24 1    
    46   22   90 1    
    47   23   91 1    
    48   23   92 1    
    49   23   93 1    
    50   24   25 am   BACKBONE|DICT|INTERRES
    51   24   94 1    
    52   25   26 2    
    53   25   27 1    
    54   27   28 1    
    55   27   29 1    
    56   27   95 1    
    57   28   96 1    
    58   28   97 1    
    59   28   98 1    
    60   29   30 am   BACKBONE|DICT|INTERRES
    61   29   99 1    
    62   30   31 2    
    63   30   32 1    
    64   32   33 1    
    65   32   34 1    
    66   32  100 1    
    67   33  101 1    
    68   33  102 1    
    69   33  103 1    
    70   34   35 am   BACKBONE|DICT|INTERRES
    71   34  104 1    
    72   35   36 2    
    73   37   38 2    
    74   37   39 am   BACKBONE|DICT|INTERRES
    75   39   40 1    
    76   39  105 1    
    77   40   41 1    
    78   40   42 1    
    79   40  106 1    
    80   41  107 1    
    81   41  108 1    
    82   41  109 1    
    83   42   43 2    
    84   42   44 am   BACKBONE|DICT|INTERRES
    85   44   45 1    
    86   44  110 1    
    87   45   46 1    
    88   45   47 1    
    89   45  111 1    
    90   46  112 1    
    91   46  113 1    
    92   46  114 1    
    93   47   48 2    
    94   47   49 am   BACKBONE|DICT|INTERRES
    95   49   50 1    
    96   49  115 1    
    97   50   51 1    
    98   50   52 1    
    99   50  116 1    
   100   51  117 1    
   101   51  118 1    
   102   51  119 1    
   103   52   53 2    
   104   52   54 am   BACKBONE|DICT|INTERRES
   105   54   55 1    
   106   54  120 1    
   107   55   56 1    
   108   55   57 1    
   109   55  121 1    
   110   56  122 1    
   111   56  123 1    
   112   56  124 1    
   113   57   58 2    
   114   57   59 am   BACKBONE|DICT|INTERRES
   115   59   60 1    
   116   59  125 1    
   117   60   61 1    
   118   60   62 1    
   119   60  126 1    
   120   61  127 1    
   121   61  128 1    
   122   61  129 1    
   123   62   63 2    
   124   62   64 am   BACKBONE|DICT|INTERRES
   125   64   65 1    
   126   64  130 1    
   127   65   66 1    
   128   65   69 1    
   129   65  131 1    
   130   66   67 am   BACKBONE|DICT|INTERRES
   131   66   68 2    
   132   67  132 1    
   133   67  133 1    
   134   69   70 1    
   135   69  134 1    
   136   69  135 1    
   137   70   71 1    
   138   71  136 1    
   139   71  137 1    
@<TRIPOS>SUBSTRUCTURE
     1 UNK         1 GROUP             0       ****    0 ROOT    
