@<TRIPOS>MOLECULE
3R137
137   139    1
SMALL
USER_CHARGES


@<TRIPOS>ATOM
      1 CA         27.8163   -4.7344    4.1569 C.3       0 UNK        -0.2020 
      2 C          28.1343   -3.7625    3.0303 C.2       0 UNK         0.4855 
      3 O          29.0673   -2.9684    3.1518 O.2       0 UNK        -0.5197 
      4 N          27.3656   -3.8166    1.9386 N.am      1 UNK        -0.4892 
      5 CA         27.4700   -2.9393    0.7735 C.3       1 UNK         0.0835 
      6 C6         28.6862   -3.2756   -0.1349 C.3       12 UNK        -0.0855 
      7 S7         29.2988   -1.8111   -1.0404 S.3       12 UNK        -0.2931 
      8 C8         30.8568   -2.4501   -1.7326 C.3       12 UNK         0.0378 
      9 C9         30.7456   -2.7658   -3.2189 C.ar      12 UNK        -0.0802 
     10 C10        31.5267   -2.0623   -4.1406 C.ar      12 UNK        -0.0944 
     11 C11        31.4882   -2.3766   -5.5058 C.ar      12 UNK        -0.0787 
     12 C12        30.6374   -3.4014   -5.9354 C.ar      12 UNK        -0.0862 
     13 C13        29.8355   -4.1036   -5.0300 C.ar      12 UNK        -0.0733 
     14 C14        29.9010   -3.7837   -3.6713 C.ar      12 UNK        -0.0832 
     15 C15        28.9391   -5.2453   -5.5013 C.3       12 UNK         0.0240 
     16 S16        27.8528   -4.8035   -6.8991 S.3       12 UNK        -0.2522 
     17 C17        26.7260   -3.5847   -6.1430 C.3       12 UNK        -0.0967 
     18 CA         26.5002   -2.3550   -7.0574 C.3       5 UNK         0.0660 
     19 N          25.2711   -1.6343   -6.7167 N.am      5 UNK        -0.4015 
     20 C          24.6988   -0.6961   -7.4858 C.2       4 UNK         0.4946 
     21 O          25.1242   -0.3557   -8.5887 O.2       4 UNK        -0.5353 
     22 CA         23.4618    0.0131   -6.9114 C.3       4 UNK         0.0277 
     23 CB         22.1988   -0.8369   -7.1236 C.3       4 UNK        -0.1981 
     24 N          23.6078    0.3394   -5.4915 N.am      4 UNK        -0.4209 
     25 C          24.5089    1.2056   -5.0059 C.2       3 UNK         0.4942 
     26 O          25.2815    1.8573   -5.7062 O.2       3 UNK        -0.5208 
     27 CA         24.5943    1.3325   -3.4769 C.3       3 UNK         0.0250 
     28 CB         23.5746    2.3612   -2.9625 C.3       3 UNK        -0.1990 
     29 N          24.4172    0.0618   -2.7647 N.am      3 UNK        -0.4232 
     30 C          25.1955   -1.0175   -2.9224 C.2       2 UNK         0.4993 
     31 O          26.1194   -1.0924   -3.7362 O.2       2 UNK        -0.5286 
     32 CA         24.9146   -2.2115   -2.0113 C.3       2 UNK         0.0209 
     33 CB         24.6432   -3.4943   -2.8191 C.3       2 UNK        -0.1931 
     34 N          26.0913   -2.3770   -1.1698 N.am      2 UNK        -0.4546 
     35 C          26.1211   -2.9656    0.0278 C.2       1 UNK         0.5154 
     36 O          25.1401   -3.5092    0.5458 O.2       1 UNK        -0.5181 
     37 C          27.7102   -1.4044   -7.0590 C.2       5 UNK         0.5014 
     38 O          28.4655   -1.3856   -8.0328 O.2       5 UNK        -0.5248 
     39 N          27.8332   -0.5968   -5.9946 N.am      6 UNK        -0.4434 
     40 CA         28.8720    0.4209   -5.8428 C.3       6 UNK         0.0363 
     41 CB         28.7703    1.0702   -4.4556 C.3       6 UNK        -0.1936 
     42 C          28.8510    1.4808   -6.9557 C.2       6 UNK         0.5081 
     43 O          29.9188    1.8914   -7.4086 O.2       6 UNK        -0.5248 
     44 N          27.6537    1.8815   -7.4025 N.am      7 UNK        -0.4718 
     45 CA         27.4608    2.7531   -8.5600 C.3       7 UNK         0.0273 
     46 CB         26.0120    3.2664   -8.5941 C.3       7 UNK        -0.1935 
     47 C          27.8325    2.0579   -9.8797 C.2       7 UNK         0.5018 
     48 O          28.6401    2.6008  -10.6340 O.2       7 UNK        -0.5186 
     49 N          27.2517    0.8745  -10.1329 N.am      8 UNK        -0.4240 
     50 CA         27.4148    0.1121  -11.3763 C.3       8 UNK         0.0235 
     51 CB         26.4777   -1.1062  -11.3712 C.3       8 UNK        -0.2000 
     52 C          28.8595   -0.3279  -11.6572 C.2       8 UNK         0.4941 
     53 O          29.3142   -0.2039  -12.7951 O.2       8 UNK        -0.5273 
     54 N          29.5562   -0.8169  -10.6236 N.am      9 UNK        -0.4262 
     55 CA         30.9533   -1.2524  -10.7047 C.3       9 UNK         0.0264 
     56 CB         31.1426   -2.4857   -9.8089 C.3       9 UNK        -0.1955 
     57 C          31.9627   -0.1297  -10.3874 C.2       9 UNK         0.5031 
     58 O          33.1646   -0.3994  -10.3778 O.2       9 UNK        -0.5390 
     59 N          31.4736    1.1015  -10.1712 N.am      10 UNK        -0.4204 
     60 CA         32.2300    2.3469   -9.9939 C.3       10 UNK         0.0237 
     61 CB         32.9447    2.7368  -11.3060 C.3       10 UNK        -0.1985 
     62 C          33.1685    2.3567   -8.7698 C.2       10 UNK         0.4970 
     63 O          34.2845    2.8743   -8.8549 O.2       10 UNK        -0.4914 
     64 N          32.6819    1.8263   -7.6431 N.am      11 UNK        -0.4285 
     65 CA         33.2823    2.0201   -6.3139 C.3       11 UNK         0.1007 
     66 C          32.8230    3.3505   -5.6543 C.2       11 UNK         0.5703 
     67 N          31.6598    3.8909   -6.0028 N.am      11 UNK        -0.7361 
     68 O          33.5377    3.9032   -4.8217 O.2       11 UNK        -0.4986 
     69 C69        33.0056    0.8290   -5.3627 C.3       12 UNK        -0.0947 
     70 S70        33.7770   -0.7218   -5.9317 S.3       12 UNK        -0.2240 
     71 C71        32.3313   -1.6435   -6.5549 C.3       12 UNK         0.0194 
     72 H72        28.6801   -5.3662    4.3622 H         1 UNK         0.0906 
     73 H73        27.5701   -4.1872    5.0665 H         1 UNK         0.0906 
     74 H74        26.9742   -5.3815    3.9119 H         1 UNK         0.0906 
     75 H75        26.5596   -4.4307    1.9041 H         1 UNK         0.3140 
     76 H76        27.5827   -1.9218    1.1557 H         1 UNK         0.1085 
     77 H77        29.5141   -3.6408    0.4746 H         1 UNK         0.0836 
     78 H78        28.4534   -4.0844   -0.8292 H         1 UNK         0.0836 
     79 H79        31.6334   -1.7038   -1.5583 H         1 UNK         0.0731 
     80 H80        31.1781   -3.3445   -1.1972 H         1 UNK         0.0731 
     81 H81        32.1766   -1.2800   -3.7787 H         1 UNK         0.1312 
     82 H82        30.5953   -3.6617   -6.9833 H         1 UNK         0.1406 
     83 H83        29.3036   -4.3366   -2.9611 H         1 UNK         0.1631 
     84 H84        28.3185   -5.6170   -4.6843 H         1 UNK         0.0717 
     85 H85        29.5738   -6.0782   -5.8063 H         1 UNK         0.0717 
     86 H86        25.7798   -4.0983   -5.9660 H         1 UNK         0.0934 
     87 H87        27.0929   -3.2835   -5.1597 H         1 UNK         0.0934 
     88 H88        26.3711   -2.7153   -8.0807 H         1 UNK         0.0739 
     89 H89        24.8952   -1.7973   -5.7948 H         1 UNK         0.3093 
     90 H90        23.3371    0.9506   -7.4580 H         1 UNK         0.0818 
     91 H91        21.3039   -0.3048   -6.8001 H         1 UNK         0.0819 
     92 H92        22.0655   -1.0776   -8.1794 H         1 UNK         0.0819 
     93 H93        22.2449   -1.7801   -6.5779 H         1 UNK         0.0819 
     94 H94        23.0053   -0.1431   -4.8408 H         1 UNK         0.3041 
     95 H95        25.5945    1.7001   -3.2388 H         1 UNK         0.0784 
     96 H96        23.7003    3.3203   -3.4673 H         1 UNK         0.0793 
     97 H97        22.5477    2.0355   -3.1329 H         1 UNK         0.0793 
     98 H98        23.6974    2.5425   -1.8945 H         1 UNK         0.0793 
     99 H99        23.6865    0.0385   -2.0675 H         1 UNK         0.3024 
    100 H100       24.0457   -1.9948   -1.3854 H         1 UNK         0.1171 
    101 H101       23.8222   -3.3509   -3.5225 H         1 UNK         0.0786 
    102 H102       24.3671   -4.3210   -2.1644 H         1 UNK         0.0786 
    103 H103       25.5186   -3.8043   -3.3894 H         1 UNK         0.0786 
    104 H104       26.9418   -1.9565   -1.5297 H         1 UNK         0.2977 
    105 H105       27.1779   -0.7010   -5.2216 H         1 UNK         0.3127 
    106 H106       29.8290   -0.0952   -5.9046 H         1 UNK         0.0770 
    107 H107       27.8184    1.5842   -4.3221 H         1 UNK         0.0814 
    108 H108       29.5639    1.8042   -4.3095 H         1 UNK         0.0814 
    109 H109       28.8650    0.3261   -3.6639 H         1 UNK         0.0814 
    110 H110       26.8172    1.5635   -6.9214 H         1 UNK         0.2983 
    111 H111       28.1199    3.6166   -8.4450 H         1 UNK         0.0947 
    112 H112       25.8470    3.9166   -9.4542 H         1 UNK         0.0806 
    113 H113       25.7784    3.8451   -7.7003 H         1 UNK         0.0806 
    114 H114       25.2923    2.4496   -8.6572 H         1 UNK         0.0806 
    115 H115       26.5951    0.4921   -9.4551 H         1 UNK         0.3000 
    116 H116       27.1108    0.7662  -12.1962 H         1 UNK         0.0850 
    117 H117       26.5834   -1.6878  -12.2880 H         1 UNK         0.0810 
    118 H118       25.4333   -0.8018  -11.3004 H         1 UNK         0.0810 
    119 H119       26.6892   -1.7723  -10.5335 H         1 UNK         0.0810 
    120 H120       29.1011   -0.9114   -9.7151 H         1 UNK         0.3040 
    121 H121       31.1736   -1.5682  -11.7266 H         1 UNK         0.0766 
    122 H122       32.1859   -2.8016   -9.7702 H         1 UNK         0.0812 
    123 H123       30.5625   -3.3308  -10.1795 H         1 UNK         0.0812 
    124 H124       30.8135   -2.2865   -8.7931 H         1 UNK         0.0812 
    125 H125       30.4674    1.2140  -10.1905 H         1 UNK         0.3205 
    126 H126       31.4819    3.1158   -9.7937 H         1 UNK         0.0754 
    127 H127       33.3944    3.7275  -11.2291 H         1 UNK         0.0769 
    128 H128       32.2470    2.7646  -12.1432 H         1 UNK         0.0769 
    129 H129       33.7417    2.0357  -11.5561 H         1 UNK         0.0769 
    130 H130       31.7111    1.5254   -7.6471 H         1 UNK         0.2981 
    131 H131       34.3655    2.0941   -6.4288 H         1 UNK         0.0541 
    132 H132       31.3695    4.7573   -5.5790 H         1 UNK         0.3459 
    133 H133       31.0454    3.4052   -6.6450 H         1 UNK         0.3459 
    134 H134       31.9329    0.6882   -5.2281 H         1 UNK         0.0612 
    135 H135       33.4090    1.0341   -4.3693 H         1 UNK         0.0612 
    136 H136       31.6944   -0.9609   -7.1179 H         1 UNK         0.0624 
    137 H137       32.7115   -2.3746   -7.2692 H         1 UNK         0.0624 
@<TRIPOS>BOND
     1    1    2 1    
     2    1   72 1    
     3    1   73 1    
     4    1   74 1    
     5    2    3 2    
     6    2    4 am   BACKBONE|DICT|INTERRES
     7    4    5 1    
     8    4   75 1    
     9    5    6 1    
    10    5   35 1    
    11    5   76 1    
    12    6    7 1    
    13    6   77 1    
    14    6   78 1    
    15    7    8 1    
    16    8    9 1    
    17    8   79 1    
    18    8   80 1    
    19    9   10 ar   
    20    9   14 ar   
    21   10   11 ar   
    22   10   81 1    
    23   11   12 ar   
    24   11   71 1    
    25   12   13 ar   
    26   12   82 1    
    27   13   14 ar   
    28   13   15 1    
    29   14   83 1    
    30   15   16 1    
    31   15   84 1    
    32   15   85 1    
    33   16   17 1    
    34   17   18 1    
    35   17   86 1    
    36   17   87 1    
    37   18   19 1    
    38   18   37 1    
    39   18   88 1    
    40   19   20 am   BACKBONE|DICT|INTERRES
    41   19   89 1    
    42   20   21 2    
    43   20   22 1    
    44   22   23 1    
    45   22   24 1    
    46   22   90 1    
    47   23   91 1    
    48   23   92 1    
    49   23   93 1    
    50   24   25 am   BACKBONE|DICT|INTERRES
    51   24   94 1    
    52   25   26 2    
    53   25   27 1    
    54   27   28 1    
    55   27   29 1    
    56   27   95 1    
    57   28   96 1    
    58   28   97 1    
    59   28   98 1    
    60   29   30 am   BACKBONE|DICT|INTERRES
    61   29   99 1    
    62   30   31 2    
    63   30   32 1    
    64   32   33 1    
    65   32   34 1    
    66   32  100 1    
    67   33  101 1    
    68   33  102 1    
    69   33  103 1    
    70   34   35 am   BACKBONE|DICT|INTERRES
    71   34  104 1    
    72   35   36 2    
    73   37   38 2    
    74   37   39 am   BACKBONE|DICT|INTERRES
    75   39   40 1    
    76   39  105 1    
    77   40   41 1    
    78   40   42 1    
    79   40  106 1    
    80   41  107 1    
    81   41  108 1    
    82   41  109 1    
    83   42   43 2    
    84   42   44 am   BACKBONE|DICT|INTERRES
    85   44   45 1    
    86   44  110 1    
    87   45   46 1    
    88   45   47 1    
    89   45  111 1    
    90   46  112 1    
    91   46  113 1    
    92   46  114 1    
    93   47   48 2    
    94   47   49 am   BACKBONE|DICT|INTERRES
    95   49   50 1    
    96   49  115 1    
    97   50   51 1    
    98   50   52 1    
    99   50  116 1    
   100   51  117 1    
   101   51  118 1    
   102   51  119 1    
   103   52   53 2    
   104   52   54 am   BACKBONE|DICT|INTERRES
   105   54   55 1    
   106   54  120 1    
   107   55   56 1    
   108   55   57 1    
   109   55  121 1    
   110   56  122 1    
   111   56  123 1    
   112   56  124 1    
   113   57   58 2    
   114   57   59 am   BACKBONE|DICT|INTERRES
   115   59   60 1    
   116   59  125 1    
   117   60   61 1    
   118   60   62 1    
   119   60  126 1    
   120   61  127 1    
   121   61  128 1    
   122   61  129 1    
   123   62   63 2    
   124   62   64 am   BACKBONE|DICT|INTERRES
   125   64   65 1    
   126   64  130 1    
   127   65   66 1    
   128   65   69 1    
   129   65  131 1    
   130   66   67 am   BACKBONE|DICT|INTERRES
   131   66   68 2    
   132   67  132 1    
   133   67  133 1    
   134   69   70 1    
   135   69  134 1    
   136   69  135 1    
   137   70   71 1    
   138   71  136 1    
   139   71  137 1    
@<TRIPOS>SUBSTRUCTURE
     1 UNK         1 GROUP             0       ****    0 ROOT    
