@<TRIPOS>MOLECULE
3R137
137   139    1
SMALL
USER_CHARGES


@<TRIPOS>ATOM
      1 CA         23.6082   -3.0810   -0.1734 C.3       0 UNK        -0.2020 
      2 C          24.7943   -2.1794   -0.4781 C.2       0 UNK         0.4855 
      3 O          24.6976   -0.9647   -0.3004 O.2       0 UNK        -0.5197 
      4 N          25.9076   -2.7631   -0.9453 N.am      1 UNK        -0.4892 
      5 CA         27.1515   -2.0789   -1.3206 C.3       1 UNK         0.0835 
      6 C6         28.2477   -3.1016   -1.7231 C.3       12 UNK        -0.0855 
      7 S7         29.9379   -2.4554   -1.4866 S.3       12 UNK        -0.2931 
      8 C8         30.9650   -3.8094   -2.1549 C.3       12 UNK         0.0378 
      9 C9         30.9629   -3.8511   -3.6793 C.ar      12 UNK        -0.0802 
     10 C10        31.9189   -3.1392   -4.4140 C.ar      12 UNK        -0.0944 
     11 C11        31.9150   -3.1659   -5.8181 C.ar      12 UNK        -0.0787 
     12 C12        30.9390   -3.9263   -6.4725 C.ar      12 UNK        -0.0862 
     13 C13        29.9901   -4.6544   -5.7521 C.ar      12 UNK        -0.0733 
     14 C14        30.0151   -4.6207   -4.3563 C.ar      12 UNK        -0.0832 
     15 C15        28.9602   -5.5125   -6.4712 C.3       12 UNK         0.0240 
     16 S16        27.2589   -4.9519   -6.1459 S.3       12 UNK        -0.2522 
     17 C17        26.8852   -3.8601   -7.5681 C.3       12 UNK        -0.0967 
     18 CA         26.4867   -2.4007   -7.1936 C.3       5 UNK         0.0660 
     19 N          25.5922   -2.3158   -6.0336 N.am      5 UNK        -0.4015 
     20 C          24.3222   -2.7443   -6.0626 C.2       4 UNK         0.4946 
     21 O          23.7251   -3.0566   -7.0944 O.2       4 UNK        -0.5353 
     22 CA         23.6009   -2.8906   -4.7174 C.3       4 UNK         0.0277 
     23 CB         24.2362   -4.0114   -3.8753 C.3       4 UNK        -0.1981 
     24 N          23.6054   -1.6378   -3.9666 N.am      4 UNK        -0.4209 
     25 C          22.6040   -0.7458   -3.9724 C.2       3 UNK         0.4942 
     26 O          21.5637   -0.8894   -4.6159 O.2       3 UNK        -0.5208 
     27 CA         22.7661    0.5146   -3.1023 C.3       3 UNK         0.0250 
     28 CB         21.8817    0.4250   -1.8474 C.3       3 UNK        -0.1990 
     29 N          24.1530    0.7538   -2.6986 N.am      3 UNK        -0.4232 
     30 C          25.0771    1.3012   -3.5002 C.2       2 UNK         0.4993 
     31 O          24.8429    1.7133   -4.6356 O.2       2 UNK        -0.5286 
     32 CA         26.5172    1.3623   -2.9698 C.3       2 UNK         0.0209 
     33 CB         26.7759    2.6952   -2.2512 C.3       2 UNK        -0.1931 
     34 N          26.8687    0.2476   -2.0799 N.am      2 UNK        -0.4546 
     35 C          26.8871   -1.0452   -2.4360 C.2       1 UNK         0.5154 
     36 O          26.6462   -1.4365   -3.5824 O.2       1 UNK        -0.5181 
     37 C          27.7119   -1.4726   -7.1347 C.2       5 UNK         0.5014 
     38 O          28.2104   -1.1242   -8.2065 O.2       5 UNK        -0.5248 
     39 N          28.1883   -1.0539   -5.9504 N.am      6 UNK        -0.4434 
     40 CA         29.4274   -0.2679   -5.8190 C.3       6 UNK         0.0363 
     41 CB         29.8383   -0.1343   -4.3480 C.3       6 UNK        -0.1936 
     42 C          29.3996    1.1163   -6.4834 C.2       6 UNK         0.5081 
     43 O          30.4603    1.6116   -6.8668 O.2       6 UNK        -0.5248 
     44 N          28.2064    1.7060   -6.6275 N.am      7 UNK        -0.4718 
     45 CA         28.0016    2.9707   -7.3363 C.3       7 UNK         0.0273 
     46 CB         26.6405    3.5598   -6.9343 C.3       7 UNK        -0.1935 
     47 C          28.0971    2.8213   -8.8660 C.2       7 UNK         0.5018 
     48 O          28.4794    3.7790   -9.5383 O.2       7 UNK        -0.5186 
     49 N          27.7544    1.6344   -9.3865 N.am      8 UNK        -0.4240 
     50 CA         27.8127    1.3022  -10.8113 C.3       8 UNK         0.0235 
     51 CB         26.7069    0.2871  -11.1472 C.3       8 UNK        -0.2000 
     52 C          29.1914    0.7488  -11.1960 C.2       8 UNK         0.4941 
     53 O          29.7436    1.1482  -12.2211 O.2       8 UNK        -0.5273 
     54 N          29.7284   -0.1467  -10.3564 N.am      9 UNK        -0.4262 
     55 CA         31.0364   -0.7857  -10.5217 C.3       9 UNK         0.0264 
     56 CB         31.0278   -2.1109   -9.7461 C.3       9 UNK        -0.1955 
     57 C          32.2262    0.1057  -10.1100 C.2       9 UNK         0.5031 
     58 O          33.3705   -0.2888  -10.3379 O.2       9 UNK        -0.5390 
     59 N          31.9412    1.2834   -9.5360 N.am      10 UNK        -0.4204 
     60 CA         32.8748    2.3491   -9.1569 C.3       10 UNK         0.0237 
     61 CB         33.6053    2.9166  -10.3940 C.3       10 UNK        -0.1985 
     62 C          33.8277    1.9720   -8.0060 C.2       10 UNK         0.4970 
     63 O          34.9851    2.3967   -8.0070 O.2       10 UNK        -0.4914 
     64 N          33.3083    1.2335   -7.0177 N.am      11 UNK        -0.4285 
     65 CA         33.9285    1.1098   -5.6875 C.3       11 UNK         0.1007 
     66 C          33.5279    2.2850   -4.7499 C.2       11 UNK         0.5703 
     67 N          32.4140    2.9720   -4.9855 N.am      11 UNK        -0.7361 
     68 O          34.2467    2.5832   -3.7993 O.2       11 UNK        -0.4986 
     69 C69        33.6182   -0.2461   -5.0052 C.3       12 UNK        -0.0947 
     70 S70        34.3674   -1.6794   -5.8418 S.3       12 UNK        -0.2240 
     71 C71        32.9170   -2.3931   -6.6864 C.3       12 UNK         0.0194 
     72 H72        22.7876   -2.8652   -0.8569 H         1 UNK         0.0906 
     73 H73        23.8620   -4.1365   -0.2683 H         1 UNK         0.0906 
     74 H74        23.2583   -2.9082    0.8441 H         1 UNK         0.0906 
     75 H75        25.9118   -3.7649   -1.0733 H         1 UNK         0.3140 
     76 H76        27.4912   -1.5474   -0.4289 H         1 UNK         0.1085 
     77 H77        28.1126   -3.4387   -2.7516 H         1 UNK         0.0836 
     78 H78        28.1699   -3.9969   -1.1040 H         1 UNK         0.0836 
     79 H79        31.9870   -3.6787   -1.7959 H         1 UNK         0.0731 
     80 H80        30.6240   -4.7623   -1.7471 H         1 UNK         0.0731 
     81 H81        32.6553   -2.5615   -3.8760 H         1 UNK         0.1312 
     82 H82        30.9261   -3.9668   -7.5523 H         1 UNK         0.1406 
     83 H83        29.2871   -5.1939   -3.7986 H         1 UNK         0.1631 
     84 H84        29.0572   -6.5389   -6.1145 H         1 UNK         0.0717 
     85 H85        29.1484   -5.5495   -7.5451 H         1 UNK         0.0717 
     86 H86        26.0510   -4.3227   -8.0979 H         1 UNK         0.0934 
     87 H87        27.7085   -3.8747   -8.2852 H         1 UNK         0.0934 
     88 H88        25.9179   -2.0075   -8.0396 H         1 UNK         0.0739 
     89 H89        26.0068   -2.0604   -5.1407 H         1 UNK         0.3093 
     90 H90        22.5713   -3.1898   -4.9267 H         1 UNK         0.0818 
     91 H91        23.6709   -4.1871   -2.9610 H         1 UNK         0.0819 
     92 H92        24.2498   -4.9510   -4.4295 H         1 UNK         0.0819 
     93 H93        25.2667   -3.7879   -3.5992 H         1 UNK         0.0819 
     94 H94        24.4542   -1.4108   -3.4667 H         1 UNK         0.3041 
     95 H95        22.4219    1.3650   -3.6952 H         1 UNK         0.0784 
     96 H96        20.8327    0.2960   -2.1175 H         1 UNK         0.0793 
     97 H97        22.1595   -0.4170   -1.2133 H         1 UNK         0.0793 
     98 H98        21.9512    1.3328   -1.2479 H         1 UNK         0.0793 
     99 H99        24.4315    0.4042   -1.7858 H         1 UNK         0.3024 
    100 H100       27.1606    1.3255   -3.8481 H         1 UNK         0.1171 
    101 H101       27.8237    2.7955   -1.9673 H         1 UNK         0.0786 
    102 H102       26.1710    2.7924   -1.3488 H         1 UNK         0.0786 
    103 H103       26.5357    3.5405   -2.8980 H         1 UNK         0.0786 
    104 H104       27.0308    0.4819   -1.1105 H         1 UNK         0.2977 
    105 H105       27.7353   -1.3402   -5.0875 H         1 UNK         0.3127 
    106 H106       30.2135   -0.8294   -6.3263 H         1 UNK         0.0770 
    107 H107       29.0517    0.2755   -3.7273 H         1 UNK         0.0814 
    108 H108       30.6917    0.5317   -4.2255 H         1 UNK         0.0814 
    109 H109       30.1168   -1.1012   -3.9402 H         1 UNK         0.0814 
    110 H110       27.3840    1.2316   -6.2838 H         1 UNK         0.2983 
    111 H111       28.7809    3.6713   -7.0267 H         1 UNK         0.0947 
    112 H112       26.4651    4.5145   -7.4322 H         1 UNK         0.0806 
    113 H113       26.5887    3.7414   -5.8605 H         1 UNK         0.0806 
    114 H114       25.8166    2.8962   -7.2000 H         1 UNK         0.0806 
    115 H115       27.5180    0.8802   -8.7549 H         1 UNK         0.3000 
    116 H116       27.6338    2.2031  -11.4027 H         1 UNK         0.0850 
    117 H117       26.7219    0.0323  -12.2078 H         1 UNK         0.0810 
    118 H118       25.7190    0.6916  -10.9261 H         1 UNK         0.0810 
    119 H119       26.8204   -0.6422  -10.5874 H         1 UNK         0.0810 
    120 H120       29.1788   -0.4520   -9.5531 H         1 UNK         0.3040 
    121 H121       31.1757   -1.0191  -11.5794 H         1 UNK         0.0766 
    122 H122       30.7496   -1.9525   -8.7058 H         1 UNK         0.0812 
    123 H123       30.3104   -2.8113  -10.1741 H         1 UNK         0.0812 
    124 H124       32.0051   -2.5950   -9.7658 H         1 UNK         0.0812 
    125 H125       30.9681    1.4750   -9.3415 H         1 UNK         0.3205 
    126 H126       32.2503    3.1516   -8.7607 H         1 UNK         0.0754 
    127 H127       34.1747    3.8107  -10.1370 H         1 UNK         0.0769 
    128 H128       32.9000    3.1979  -11.1762 H         1 UNK         0.0769 
    129 H129       34.3064    2.1965  -10.8171 H         1 UNK         0.0769 
    130 H130       32.3204    1.0125   -7.0711 H         1 UNK         0.2981 
    131 H131       35.0131    1.1684   -5.7975 H         1 UNK         0.0541 
    132 H132       32.1708    3.7365   -4.3763 H         1 UNK         0.3459 
    133 H133       31.7909    2.7054   -5.7374 H         1 UNK         0.3459 
    134 H134       32.5440   -0.3963   -4.9381 H         1 UNK         0.0612 
    135 H135       33.9908   -0.2545   -3.9790 H         1 UNK         0.0612 
    136 H136       32.3977   -1.5823   -7.1953 H         1 UNK         0.0624 
    137 H137       33.2900   -3.0582   -7.4667 H         1 UNK         0.0624 
@<TRIPOS>BOND
     1    1    2 1    
     2    1   72 1    
     3    1   73 1    
     4    1   74 1    
     5    2    3 2    
     6    2    4 am   BACKBONE|DICT|INTERRES
     7    4    5 1    
     8    4   75 1    
     9    5    6 1    
    10    5   35 1    
    11    5   76 1    
    12    6    7 1    
    13    6   77 1    
    14    6   78 1    
    15    7    8 1    
    16    8    9 1    
    17    8   79 1    
    18    8   80 1    
    19    9   10 ar   
    20    9   14 ar   
    21   10   11 ar   
    22   10   81 1    
    23   11   12 ar   
    24   11   71 1    
    25   12   13 ar   
    26   12   82 1    
    27   13   14 ar   
    28   13   15 1    
    29   14   83 1    
    30   15   16 1    
    31   15   84 1    
    32   15   85 1    
    33   16   17 1    
    34   17   18 1    
    35   17   86 1    
    36   17   87 1    
    37   18   19 1    
    38   18   37 1    
    39   18   88 1    
    40   19   20 am   BACKBONE|DICT|INTERRES
    41   19   89 1    
    42   20   21 2    
    43   20   22 1    
    44   22   23 1    
    45   22   24 1    
    46   22   90 1    
    47   23   91 1    
    48   23   92 1    
    49   23   93 1    
    50   24   25 am   BACKBONE|DICT|INTERRES
    51   24   94 1    
    52   25   26 2    
    53   25   27 1    
    54   27   28 1    
    55   27   29 1    
    56   27   95 1    
    57   28   96 1    
    58   28   97 1    
    59   28   98 1    
    60   29   30 am   BACKBONE|DICT|INTERRES
    61   29   99 1    
    62   30   31 2    
    63   30   32 1    
    64   32   33 1    
    65   32   34 1    
    66   32  100 1    
    67   33  101 1    
    68   33  102 1    
    69   33  103 1    
    70   34   35 am   BACKBONE|DICT|INTERRES
    71   34  104 1    
    72   35   36 2    
    73   37   38 2    
    74   37   39 am   BACKBONE|DICT|INTERRES
    75   39   40 1    
    76   39  105 1    
    77   40   41 1    
    78   40   42 1    
    79   40  106 1    
    80   41  107 1    
    81   41  108 1    
    82   41  109 1    
    83   42   43 2    
    84   42   44 am   BACKBONE|DICT|INTERRES
    85   44   45 1    
    86   44  110 1    
    87   45   46 1    
    88   45   47 1    
    89   45  111 1    
    90   46  112 1    
    91   46  113 1    
    92   46  114 1    
    93   47   48 2    
    94   47   49 am   BACKBONE|DICT|INTERRES
    95   49   50 1    
    96   49  115 1    
    97   50   51 1    
    98   50   52 1    
    99   50  116 1    
   100   51  117 1    
   101   51  118 1    
   102   51  119 1    
   103   52   53 2    
   104   52   54 am   BACKBONE|DICT|INTERRES
   105   54   55 1    
   106   54  120 1    
   107   55   56 1    
   108   55   57 1    
   109   55  121 1    
   110   56  122 1    
   111   56  123 1    
   112   56  124 1    
   113   57   58 2    
   114   57   59 am   BACKBONE|DICT|INTERRES
   115   59   60 1    
   116   59  125 1    
   117   60   61 1    
   118   60   62 1    
   119   60  126 1    
   120   61  127 1    
   121   61  128 1    
   122   61  129 1    
   123   62   63 2    
   124   62   64 am   BACKBONE|DICT|INTERRES
   125   64   65 1    
   126   64  130 1    
   127   65   66 1    
   128   65   69 1    
   129   65  131 1    
   130   66   67 am   BACKBONE|DICT|INTERRES
   131   66   68 2    
   132   67  132 1    
   133   67  133 1    
   134   69   70 1    
   135   69  134 1    
   136   69  135 1    
   137   70   71 1    
   138   71  136 1    
   139   71  137 1    
@<TRIPOS>SUBSTRUCTURE
     1 UNK         1 GROUP             0       ****    0 ROOT    
