@<TRIPOS>MOLECULE
3R137
137   139    1
SMALL
USER_CHARGES


@<TRIPOS>ATOM
      1 CA         28.8464   -5.5212   -6.4466 C.3       0 UNK        -0.2020 
      2 C          28.9499   -5.6220   -4.9331 C.2       0 UNK         0.4855 
      3 O          28.5710   -6.6437   -4.3601 O.2       0 UNK        -0.5197 
      4 N          29.4592   -4.5665   -4.2849 N.am      1 UNK        -0.4892 
      5 CA         29.6004   -4.4607   -2.8255 C.3       1 UNK         0.0835 
      6 C6         30.4633   -3.2356   -2.4327 C.3       12 UNK        -0.0855 
      7 S7         31.6105   -3.5717   -1.0532 S.3       12 UNK        -0.2931 
      8 C8         32.0104   -1.8897   -0.4665 C.3       12 UNK         0.0378 
      9 C9         32.3653   -0.9537   -1.6136 C.ar      12 UNK        -0.0802 
     10 C10        33.6386   -0.9759   -2.1893 C.ar      12 UNK        -0.0944 
     11 C11        33.9319   -0.1608   -3.2883 C.ar      12 UNK        -0.0787 
     12 C12        32.9375    0.6712   -3.8169 C.ar      12 UNK        -0.0862 
     13 C13        31.6627    0.7036   -3.2429 C.ar      12 UNK        -0.0733 
     14 C14        31.3948   -0.0901   -2.1261 C.ar      12 UNK        -0.0832 
     15 C15        30.5608    1.5827   -3.8149 C.3       12 UNK         0.0240 
     16 S16        29.1692    0.5786   -4.4318 S.3       12 UNK        -0.2522 
     17 C17        27.8856    1.8543   -4.6581 C.3       12 UNK        -0.0967 
     18 CA         27.1762    1.7182   -6.0253 C.3       5 UNK         0.0660 
     19 N          26.4184    0.4640   -6.1301 N.am      5 UNK        -0.4015 
     20 C          25.7515    0.0281   -7.2115 C.2       4 UNK         0.4946 
     21 O          25.7057    0.6326   -8.2830 O.2       4 UNK        -0.5353 
     22 CA         24.9194   -1.2573   -7.0550 C.3       4 UNK         0.0277 
     23 CB         25.7638   -2.4805   -7.4496 C.3       4 UNK        -0.1981 
     24 N          24.3652   -1.4639   -5.7115 N.am      4 UNK        -0.4209 
     25 C          23.6688   -0.5763   -4.9827 C.2       3 UNK         0.4942 
     26 O          23.3506    0.5415   -5.3910 O.2       3 UNK        -0.5208 
     27 CA         23.2978   -0.9738   -3.5391 C.3       3 UNK         0.0250 
     28 CB         21.7880   -1.2438   -3.4317 C.3       3 UNK        -0.1990 
     29 N          24.0301   -2.1262   -2.9933 N.am      3 UNK        -0.4232 
     30 C          25.3598   -2.2198   -2.8440 C.2       2 UNK         0.4993 
     31 O          26.1458   -1.3331   -3.1888 O.2       2 UNK        -0.5286 
     32 CA         25.9042   -3.5314   -2.2535 C.3       2 UNK         0.0209 
     33 CB         25.0577   -4.7717   -2.6182 C.3       2 UNK        -0.1931 
     34 N          27.2747   -3.7141   -2.7206 N.am      2 UNK        -0.4546 
     35 C          28.2325   -4.4220   -2.1108 C.2       1 UNK         0.5154 
     36 O          28.0693   -5.0301   -1.0515 O.2       1 UNK        -0.5181 
     37 C          26.3583    2.9882   -6.3508 C.2       5 UNK         0.5014 
     38 O          26.9637    4.0044   -6.6952 O.2       5 UNK        -0.5248 
     39 N          25.0191    2.9235   -6.2742 N.am      6 UNK        -0.4434 
     40 CA         24.1214    3.9838   -6.7398 C.3       6 UNK         0.0363 
     41 CB         22.6996    3.7087   -6.2253 C.3       6 UNK        -0.1936 
     42 C          24.1145    4.1478   -8.2736 C.2       6 UNK         0.5081 
     43 O          23.8119    5.2419   -8.7512 O.2       6 UNK        -0.5248 
     44 N          24.4376    3.0781   -9.0151 N.am      7 UNK        -0.4718 
     45 CA         24.5469    3.0745  -10.4737 C.3       7 UNK         0.0273 
     46 CB         23.9353    1.7798  -11.0362 C.3       7 UNK        -0.1935 
     47 C          26.0105    3.2264  -10.9115 C.2       7 UNK         0.5018 
     48 O          26.3014    4.0940  -11.7362 O.2       7 UNK        -0.5186 
     49 N          26.9055    2.4007  -10.3533 N.am      8 UNK        -0.4240 
     50 CA         28.3427    2.4144  -10.6267 C.3       8 UNK         0.0235 
     51 CB         28.6454    1.7091  -11.9619 C.3       8 UNK        -0.2000 
     52 C          29.0626    1.7165   -9.4720 C.2       8 UNK         0.4941 
     53 O          28.5744    0.6905   -8.9976 O.2       8 UNK        -0.5273 
     54 N          30.2062    2.2666   -9.0431 N.am      9 UNK        -0.4262 
     55 CA         30.9900    1.8364   -7.8773 C.3       9 UNK         0.0264 
     56 CB         31.9866    2.9528   -7.5122 C.3       9 UNK        -0.1955 
     57 C          31.6767    0.4636   -8.0444 C.2       9 UNK         0.5031 
     58 O          32.9056    0.3776   -8.0244 O.2       9 UNK        -0.5390 
     59 N          30.8673   -0.5855   -8.2138 N.am      10 UNK        -0.4204 
     60 CA         31.2719   -1.9855   -8.2588 C.3       10 UNK         0.0237 
     61 CB         30.1329   -2.8134   -8.8781 C.3       10 UNK        -0.1985 
     62 C          31.6242   -2.4753   -6.8464 C.2       10 UNK         0.4970 
     63 O          30.7236   -2.6708   -6.0272 O.2       10 UNK        -0.4914 
     64 N          32.9239   -2.6583   -6.5937 N.am      11 UNK        -0.4285 
     65 CA         33.4790   -3.0820   -5.2978 C.3       11 UNK         0.1007 
     66 C          33.2448   -4.5805   -4.9410 C.2       11 UNK         0.5703 
     67 N          32.7189   -5.4073   -5.8376 N.am      11 UNK        -0.7361 
     68 O          33.5513   -5.0035   -3.8300 O.2       11 UNK        -0.4986 
     69 C69        34.9798   -2.7058   -5.1591 C.3       12 UNK        -0.0947 
     70 S70        35.3356   -0.9582   -5.5521 S.3       12 UNK        -0.2240 
     71 C71        35.3228   -0.1805   -3.9067 C.3       12 UNK         0.0194 
     72 H72        29.7193   -5.9739   -6.9155 H         1 UNK         0.0906 
     73 H73        27.9570   -6.0401   -6.8032 H         1 UNK         0.0906 
     74 H74        28.7782   -4.4837   -6.7699 H         1 UNK         0.0906 
     75 H75        29.8080   -3.7789   -4.8299 H         1 UNK         0.3140 
     76 H76        30.1084   -5.3716   -2.5005 H         1 UNK         0.1085 
     77 H77        29.8418   -2.3698   -2.1969 H         1 UNK         0.0836 
     78 H78        31.0796   -2.9207   -3.2743 H         1 UNK         0.0836 
     79 H79        32.8427   -1.9452    0.2367 H         1 UNK         0.0731 
     80 H80        31.1614   -1.4987    0.0966 H         1 UNK         0.0731 
     81 H81        34.3922   -1.6429   -1.7933 H         1 UNK         0.1312 
     82 H82        33.1592    1.2836   -4.6800 H         1 UNK         0.1406 
     83 H83        30.4069   -0.0671   -1.6859 H         1 UNK         0.1631 
     84 H84        30.9390    2.2119   -4.6214 H         1 UNK         0.0717 
     85 H85        30.2067    2.2546   -3.0317 H         1 UNK         0.0717 
     86 H86        27.1673    1.7795   -3.8393 H         1 UNK         0.0934 
     87 H87        28.3517    2.8377   -4.5653 H         1 UNK         0.0934 
     88 H88        27.9510    1.6745   -6.7861 H         1 UNK         0.0739 
     89 H89        26.3924   -0.1024   -5.2916 H         1 UNK         0.3093 
     90 H90        24.0754   -1.1816   -7.7434 H         1 UNK         0.0818 
     91 H91        26.1787   -2.3601   -8.4518 H         1 UNK         0.0819 
     92 H92        26.6025   -2.6299   -6.7680 H         1 UNK         0.0819 
     93 H93        25.1671   -3.3928   -7.4561 H         1 UNK         0.0819 
     94 H94        24.5688   -2.3519   -5.2785 H         1 UNK         0.3041 
     95 H95        23.5357   -0.1141   -2.9093 H         1 UNK         0.0784 
     96 H96        21.2109   -0.3926   -3.7965 H         1 UNK         0.0793 
     97 H97        21.4909   -2.1138   -4.0188 H         1 UNK         0.0793 
     98 H98        21.4865   -1.4151   -2.3982 H         1 UNK         0.0793 
     99 H99        23.4649   -2.9089   -2.6964 H         1 UNK         0.3024 
    100 H100       25.9151   -3.4108   -1.1678 H         1 UNK         0.1171 
    101 H101       25.5132   -5.6868   -2.2387 H         1 UNK         0.0786 
    102 H102       24.0586   -4.7209   -2.1845 H         1 UNK         0.0786 
    103 H103       24.9502   -4.8837   -3.6980 H         1 UNK         0.0786 
    104 H104       27.5183   -3.1798   -3.5444 H         1 UNK         0.2977 
    105 H105       24.5782    2.0566   -5.9792 H         1 UNK         0.3127 
    106 H106       24.4616    4.9283   -6.3097 H         1 UNK         0.0770 
    107 H107       22.2963    2.7811   -6.6339 H         1 UNK         0.0814 
    108 H108       22.0195    4.5128   -6.5094 H         1 UNK         0.0814 
    109 H109       22.6770    3.6332   -5.1380 H         1 UNK         0.0814 
    110 H110       24.7326    2.2239   -8.5481 H         1 UNK         0.2983 
    111 H111       23.9859    3.9133  -10.8919 H         1 UNK         0.0947 
    112 H112       24.4437    0.8897  -10.6638 H         1 UNK         0.0806 
    113 H113       24.0002    1.7602  -12.1249 H         1 UNK         0.0806 
    114 H114       22.8809    1.6954  -10.7730 H         1 UNK         0.0806 
    115 H115       26.6032    1.7148   -9.6620 H         1 UNK         0.3000 
    116 H116       28.6818    3.4514  -10.6781 H         1 UNK         0.0850 
    117 H117       29.7179    1.6889  -12.1598 H         1 UNK         0.0810 
    118 H118       28.1722    2.2195  -12.8008 H         1 UNK         0.0810 
    119 H119       28.2940    0.6764  -11.9571 H         1 UNK         0.0810 
    120 H120       30.5561    3.0798   -9.5293 H         1 UNK         0.3040 
    121 H121       30.3024    1.7330   -7.0368 H         1 UNK         0.0766 
    122 H122       31.4719    3.8860   -7.2825 H         1 UNK         0.0812 
    123 H123       32.6904    3.1458   -8.3229 H         1 UNK         0.0812 
    124 H124       32.5719    2.6848   -6.6320 H         1 UNK         0.0812 
    125 H125       29.8711   -0.3865   -8.2937 H         1 UNK         0.3205 
    126 H126       32.1491   -2.0784   -8.9028 H         1 UNK         0.0754 
    127 H127       30.3765   -3.8766   -8.8827 H         1 UNK         0.0769 
    128 H128       29.9489   -2.5177   -9.9112 H         1 UNK         0.0769 
    129 H129       29.1986   -2.6899   -8.3289 H         1 UNK         0.0769 
    130 H130       33.6005   -2.4330   -7.3080 H         1 UNK         0.2981 
    131 H131       32.9426   -2.5181   -4.5352 H         1 UNK         0.0541 
    132 H132       32.5815   -6.3743   -5.5913 H         1 UNK         0.3459 
    133 H133       32.4838   -5.0797   -6.7594 H         1 UNK         0.3459 
    134 H134       35.3371   -2.9178   -4.1497 H         1 UNK         0.0612 
    135 H135       35.5834   -3.3215   -5.8283 H         1 UNK         0.0612 
    136 H136       36.0341   -0.6945   -3.2584 H         1 UNK         0.0624 
    137 H137       35.6832    0.8445   -4.0029 H         1 UNK         0.0624 
@<TRIPOS>BOND
     1    1    2 1    
     2    1   72 1    
     3    1   73 1    
     4    1   74 1    
     5    2    3 2    
     6    2    4 am   BACKBONE|DICT|INTERRES
     7    4    5 1    
     8    4   75 1    
     9    5    6 1    
    10    5   35 1    
    11    5   76 1    
    12    6    7 1    
    13    6   77 1    
    14    6   78 1    
    15    7    8 1    
    16    8    9 1    
    17    8   79 1    
    18    8   80 1    
    19    9   10 ar   
    20    9   14 ar   
    21   10   11 ar   
    22   10   81 1    
    23   11   12 ar   
    24   11   71 1    
    25   12   13 ar   
    26   12   82 1    
    27   13   14 ar   
    28   13   15 1    
    29   14   83 1    
    30   15   16 1    
    31   15   84 1    
    32   15   85 1    
    33   16   17 1    
    34   17   18 1    
    35   17   86 1    
    36   17   87 1    
    37   18   19 1    
    38   18   37 1    
    39   18   88 1    
    40   19   20 am   BACKBONE|DICT|INTERRES
    41   19   89 1    
    42   20   21 2    
    43   20   22 1    
    44   22   23 1    
    45   22   24 1    
    46   22   90 1    
    47   23   91 1    
    48   23   92 1    
    49   23   93 1    
    50   24   25 am   BACKBONE|DICT|INTERRES
    51   24   94 1    
    52   25   26 2    
    53   25   27 1    
    54   27   28 1    
    55   27   29 1    
    56   27   95 1    
    57   28   96 1    
    58   28   97 1    
    59   28   98 1    
    60   29   30 am   BACKBONE|DICT|INTERRES
    61   29   99 1    
    62   30   31 2    
    63   30   32 1    
    64   32   33 1    
    65   32   34 1    
    66   32  100 1    
    67   33  101 1    
    68   33  102 1    
    69   33  103 1    
    70   34   35 am   BACKBONE|DICT|INTERRES
    71   34  104 1    
    72   35   36 2    
    73   37   38 2    
    74   37   39 am   BACKBONE|DICT|INTERRES
    75   39   40 1    
    76   39  105 1    
    77   40   41 1    
    78   40   42 1    
    79   40  106 1    
    80   41  107 1    
    81   41  108 1    
    82   41  109 1    
    83   42   43 2    
    84   42   44 am   BACKBONE|DICT|INTERRES
    85   44   45 1    
    86   44  110 1    
    87   45   46 1    
    88   45   47 1    
    89   45  111 1    
    90   46  112 1    
    91   46  113 1    
    92   46  114 1    
    93   47   48 2    
    94   47   49 am   BACKBONE|DICT|INTERRES
    95   49   50 1    
    96   49  115 1    
    97   50   51 1    
    98   50   52 1    
    99   50  116 1    
   100   51  117 1    
   101   51  118 1    
   102   51  119 1    
   103   52   53 2    
   104   52   54 am   BACKBONE|DICT|INTERRES
   105   54   55 1    
   106   54  120 1    
   107   55   56 1    
   108   55   57 1    
   109   55  121 1    
   110   56  122 1    
   111   56  123 1    
   112   56  124 1    
   113   57   58 2    
   114   57   59 am   BACKBONE|DICT|INTERRES
   115   59   60 1    
   116   59  125 1    
   117   60   61 1    
   118   60   62 1    
   119   60  126 1    
   120   61  127 1    
   121   61  128 1    
   122   61  129 1    
   123   62   63 2    
   124   62   64 am   BACKBONE|DICT|INTERRES
   125   64   65 1    
   126   64  130 1    
   127   65   66 1    
   128   65   69 1    
   129   65  131 1    
   130   66   67 am   BACKBONE|DICT|INTERRES
   131   66   68 2    
   132   67  132 1    
   133   67  133 1    
   134   69   70 1    
   135   69  134 1    
   136   69  135 1    
   137   70   71 1    
   138   71  136 1    
   139   71  137 1    
@<TRIPOS>SUBSTRUCTURE
     1 UNK         1 GROUP             0       ****    0 ROOT    
