@<TRIPOS>MOLECULE
3R137
137   139    1
SMALL
USER_CHARGES


@<TRIPOS>ATOM
      1 CA         29.4636   -0.2496   -1.5786 C.3       0 UNK        -0.2020 
      2 C          29.9034   -0.8625   -0.2516 C.2       0 UNK         0.4855 
      3 O          30.5470   -0.1792    0.5423 O.2       0 UNK        -0.5197 
      4 N          29.6005   -2.1357    0.0353 N.am      1 UNK        -0.4892 
      5 CA         28.7882   -3.0635   -0.7638 C.3       1 UNK         0.0835 
      6 C6         28.9720   -4.5368   -0.3086 C.3       12 UNK        -0.0855 
      7 S7         30.7252   -5.0378   -0.1524 S.3       12 UNK        -0.2931 
      8 C8         31.0839   -5.7680   -1.7832 C.3       12 UNK         0.0378 
      9 C9         30.8852   -4.7707   -2.9161 C.ar      12 UNK        -0.0802 
     10 C10        31.6801   -3.6210   -2.9978 C.ar      12 UNK        -0.0944 
     11 C11        31.4711   -2.6818   -4.0133 C.ar      12 UNK        -0.0787 
     12 C12        30.4596   -2.9063   -4.9518 C.ar      12 UNK        -0.0862 
     13 C13        29.6900   -4.0707   -4.9054 C.ar      12 UNK        -0.0733 
     14 C14        29.8994   -4.9963   -3.8811 C.ar      12 UNK        -0.0832 
     15 C15        28.6577   -4.3406   -5.9840 C.3       12 UNK         0.0240 
     16 S16        26.9801   -3.9392   -5.4171 S.3       12 UNK        -0.2522 
     17 C17        26.1329   -3.8198   -7.0300 C.3       12 UNK        -0.0967 
     18 CA         25.8089   -2.3833   -7.5188 C.3       5 UNK         0.0660 
     19 N          24.6755   -1.7797   -6.8145 N.am      5 UNK        -0.4015 
     20 C          23.7990   -0.9515   -7.4037 C.2       4 UNK         0.4946 
     21 O          23.8371   -0.6483   -8.5968 O.2       4 UNK        -0.5353 
     22 CA         22.6900   -0.3505   -6.5243 C.3       4 UNK         0.0277 
     23 CB         21.4973   -1.3155   -6.4253 C.3       4 UNK        -0.1981 
     24 N          23.1398    0.0102   -5.1798 N.am      4 UNK        -0.4209 
     25 C          24.0477    0.9575   -4.9053 C.2       3 UNK         0.4942 
     26 O          24.6160    1.6373   -5.7600 O.2       3 UNK        -0.5208 
     27 CA         24.4083    1.1487   -3.4215 C.3       3 UNK         0.0250 
     28 CB         23.4311    2.1284   -2.7523 C.3       3 UNK        -0.1990 
     29 N          24.4564   -0.1019   -2.6520 N.am      3 UNK        -0.4232 
     30 C          25.2520   -1.1403   -2.9417 C.2       2 UNK         0.4993 
     31 O          25.9791   -1.1867   -3.9358 O.2       2 UNK        -0.5286 
     32 CA         25.2105   -2.3419   -1.9930 C.3       2 UNK         0.0209 
     33 CB         24.3327   -3.4593   -2.5803 C.3       2 UNK        -0.1931 
     34 N          26.5781   -2.8344   -1.8211 N.am      2 UNK        -0.4546 
     35 C          27.3006   -2.6592   -0.7085 C.2       1 UNK         0.5154 
     36 O          26.8386   -2.1962    0.3381 O.2       1 UNK        -0.5181 
     37 C          27.0192   -1.4283   -7.5330 C.2       5 UNK         0.5014 
     38 O          27.7076   -1.3503   -8.5513 O.2       5 UNK        -0.5248 
     39 N          27.2362   -0.6807   -6.4382 N.am      6 UNK        -0.4434 
     40 CA         28.2825    0.3379   -6.3052 C.3       6 UNK         0.0363 
     41 CB         28.2563    0.9246   -4.8893 C.3       6 UNK        -0.1936 
     42 C          28.1776    1.4565   -7.3521 C.2       6 UNK         0.5081 
     43 O          29.2061    1.9123   -7.8473 O.2       6 UNK        -0.5248 
     44 N          26.9455    1.8315   -7.7238 N.am      7 UNK        -0.4718 
     45 CA         26.6499    2.7730   -8.8080 C.3       7 UNK         0.0273 
     46 CB         25.1348    3.0267   -8.8543 C.3       7 UNK        -0.1935 
     47 C          27.1616    2.3239  -10.1919 C.2       7 UNK         0.5018 
     48 O          27.4535    3.1832  -11.0245 O.2       7 UNK        -0.5186 
     49 N          27.2688    1.0058  -10.4120 N.am      8 UNK        -0.4240 
     50 CA         27.8326    0.4124  -11.6247 C.3       8 UNK         0.0235 
     51 CB         27.0655   -0.8747  -11.9718 C.3       8 UNK        -0.2000 
     52 C          29.3333    0.1252  -11.4614 C.2       8 UNK         0.4941 
     53 O          30.1030    0.4080  -12.3800 O.2       8 UNK        -0.5273 
     54 N          29.7224   -0.4384  -10.3081 N.am      9 UNK        -0.4262 
     55 CA         31.0963   -0.8445   -9.9952 C.3       9 UNK         0.0264 
     56 CB         31.0765   -1.7794   -8.7764 C.3       9 UNK        -0.1955 
     57 C          32.0671    0.3278   -9.7597 C.2       9 UNK         0.5031 
     58 O          33.2687    0.1518   -9.9615 O.2       9 UNK        -0.5390 
     59 N          31.5417    1.4818   -9.3233 N.am      10 UNK        -0.4204 
     60 CA         32.2162    2.7569   -9.0402 C.3       10 UNK         0.0237 
     61 CB         33.0174    3.2655  -10.2572 C.3       10 UNK        -0.1985 
     62 C          33.0511    2.7858   -7.7446 C.2       10 UNK         0.4970 
     63 O          33.5143    3.8642   -7.3685 O.2       10 UNK        -0.4914 
     64 N          33.2173    1.6427   -7.0685 N.am      11 UNK        -0.4285 
     65 CA         33.8213    1.5386   -5.7328 C.3       11 UNK         0.1007 
     66 C          32.9143    2.1070   -4.6049 C.2       11 UNK         0.5703 
     67 N          33.4901    2.4314   -3.4549 N.am      11 UNK        -0.7361 
     68 O          31.6999    2.2316   -4.7458 O.2       11 UNK        -0.4986 
     69 C69        34.3154    0.0981   -5.4261 C.3       12 UNK        -0.0947 
     70 S70        33.0956   -1.2247   -5.7327 S.3       12 UNK        -0.2240 
     71 C71        32.3305   -1.4253   -4.0907 C.3       12 UNK         0.0194 
     72 H72        29.9839    0.6920   -1.7543 H         1 UNK         0.0906 
     73 H73        29.6922   -0.9050   -2.4170 H         1 UNK         0.0906 
     74 H74        28.3940   -0.0417   -1.5725 H         1 UNK         0.0906 
     75 H75        29.9118   -2.5124    0.9189 H         1 UNK         0.3140 
     76 H76        29.1149   -2.9936   -1.8011 H         1 UNK         0.1085 
     77 H77        28.4654   -5.2164   -0.9968 H         1 UNK         0.0836 
     78 H78        28.5047   -4.6940    0.6659 H         1 UNK         0.0836 
     79 H79        32.1170   -6.1180   -1.7945 H         1 UNK         0.0731 
     80 H80        30.4593   -6.6519   -1.9225 H         1 UNK         0.0731 
     81 H81        32.4483   -3.4525   -2.2553 H         1 UNK         0.1312 
     82 H82        30.2910   -2.1851   -5.7378 H         1 UNK         0.1406 
     83 H83        29.2919   -5.8906   -3.8389 H         1 UNK         0.1631 
     84 H84        28.6961   -5.3886   -6.2848 H         1 UNK         0.0717 
     85 H85        28.8958   -3.7569   -6.8749 H         1 UNK         0.0717 
     86 H86        26.7310   -4.3315   -7.7863 H         1 UNK         0.0934 
     87 H87        25.2107   -4.3996   -6.9665 H         1 UNK         0.0934 
     88 H88        25.5190   -2.5000   -8.5659 H         1 UNK         0.0739 
     89 H89        24.6206   -1.9423   -5.8187 H         1 UNK         0.3093 
     90 H90        22.3477    0.5647   -7.0126 H         1 UNK         0.0818 
     91 H91        20.6644   -0.8635   -5.8864 H         1 UNK         0.0819 
     92 H92        21.1303   -1.5839   -7.4171 H         1 UNK         0.0819 
     93 H93        21.7651   -2.2419   -5.9156 H         1 UNK         0.0819 
     94 H94        22.7295   -0.4943   -4.4078 H         1 UNK         0.3041 
     95 H95        25.4049    1.5911   -3.3827 H         1 UNK         0.0784 
     96 H96        23.3924    3.0731   -3.2969 H         1 UNK         0.0793 
     97 H97        22.4162    1.7302   -2.7185 H         1 UNK         0.0793 
     98 H98        23.7363    2.3591   -1.7314 H         1 UNK         0.0793 
     99 H99        23.8767   -0.1441   -1.8257 H         1 UNK         0.3024 
    100 H100       24.7823   -2.0307   -1.0373 H         1 UNK         0.1171 
    101 H101       23.3011   -3.1253   -2.6984 H         1 UNK         0.0786 
    102 H102       24.3170   -4.3321   -1.9273 H         1 UNK         0.0786 
    103 H103       24.6836   -3.7837   -3.5600 H         1 UNK         0.0786 
    104 H104       27.0266   -3.1587   -2.6686 H         1 UNK         0.2977 
    105 H105       26.6680   -0.8484   -5.6087 H         1 UNK         0.3127 
    106 H106       29.2436   -0.1567   -6.4469 H         1 UNK         0.0770 
    107 H107       27.3284    1.4609   -4.6952 H         1 UNK         0.0814 
    108 H108       29.0772    1.6268   -4.7414 H         1 UNK         0.0814 
    109 H109       28.3562    0.1413   -4.1406 H         1 UNK         0.0814 
    110 H110       26.1514    1.4571   -7.2145 H         1 UNK         0.2983 
    111 H111       27.1497    3.7142   -8.5698 H         1 UNK         0.0947 
    112 H112       24.8788    3.7333   -9.6451 H         1 UNK         0.0806 
    113 H113       24.7747    3.4481   -7.9155 H         1 UNK         0.0806 
    114 H114       24.5787    2.1073   -9.0429 H         1 UNK         0.0806 
    115 H115       27.0465    0.3691   -9.6565 H         1 UNK         0.3000 
    116 H116       27.7146    1.1042  -12.4618 H         1 UNK         0.0850 
    117 H117       27.4555   -1.3253  -12.8855 H         1 UNK         0.0810 
    118 H118       26.0074   -0.6710  -12.1372 H         1 UNK         0.0810 
    119 H119       27.1412   -1.6229  -11.1821 H         1 UNK         0.0810 
    120 H120       29.0083   -0.6886   -9.6256 H         1 UNK         0.3040 
    121 H121       31.4759   -1.4113  -10.8480 H         1 UNK         0.0766 
    122 H122       32.0761   -2.1566   -8.5562 H         1 UNK         0.0812 
    123 H123       30.4341   -2.6436   -8.9461 H         1 UNK         0.0812 
    124 H124       30.7175   -1.2649   -7.8865 H         1 UNK         0.0812 
    125 H125       30.5535    1.4854   -9.0742 H         1 UNK         0.3205 
    126 H126       31.4049    3.4671   -8.8733 H         1 UNK         0.0754 
    127 H127       33.3647    4.2867  -10.0954 H         1 UNK         0.0769 
    128 H128       32.4063    3.2712  -11.1600 H         1 UNK         0.0769 
    129 H129       33.8989    2.6540  -10.4506 H         1 UNK         0.0769 
    130 H130       32.8023    0.7981   -7.4307 H         1 UNK         0.2981 
    131 H131       34.7094    2.1738   -5.7454 H         1 UNK         0.0541 
    132 H132       34.4841    2.3325   -3.3200 H         1 UNK         0.3459 
    133 H133       32.9178    2.7944   -2.7092 H         1 UNK         0.3459 
    134 H134       34.6967    0.0180   -4.4067 H         1 UNK         0.0612 
    135 H135       35.1723   -0.1175   -6.0660 H         1 UNK         0.0612 
    136 H136       33.1140   -1.4523   -3.3320 H         1 UNK         0.0624 
    137 H137       31.7106   -0.5550   -3.8740 H         1 UNK         0.0624 
@<TRIPOS>BOND
     1    1    2 1    
     2    1   72 1    
     3    1   73 1    
     4    1   74 1    
     5    2    3 2    
     6    2    4 am   BACKBONE|DICT|INTERRES
     7    4    5 1    
     8    4   75 1    
     9    5    6 1    
    10    5   35 1    
    11    5   76 1    
    12    6    7 1    
    13    6   77 1    
    14    6   78 1    
    15    7    8 1    
    16    8    9 1    
    17    8   79 1    
    18    8   80 1    
    19    9   10 ar   
    20    9   14 ar   
    21   10   11 ar   
    22   10   81 1    
    23   11   12 ar   
    24   11   71 1    
    25   12   13 ar   
    26   12   82 1    
    27   13   14 ar   
    28   13   15 1    
    29   14   83 1    
    30   15   16 1    
    31   15   84 1    
    32   15   85 1    
    33   16   17 1    
    34   17   18 1    
    35   17   86 1    
    36   17   87 1    
    37   18   19 1    
    38   18   37 1    
    39   18   88 1    
    40   19   20 am   BACKBONE|DICT|INTERRES
    41   19   89 1    
    42   20   21 2    
    43   20   22 1    
    44   22   23 1    
    45   22   24 1    
    46   22   90 1    
    47   23   91 1    
    48   23   92 1    
    49   23   93 1    
    50   24   25 am   BACKBONE|DICT|INTERRES
    51   24   94 1    
    52   25   26 2    
    53   25   27 1    
    54   27   28 1    
    55   27   29 1    
    56   27   95 1    
    57   28   96 1    
    58   28   97 1    
    59   28   98 1    
    60   29   30 am   BACKBONE|DICT|INTERRES
    61   29   99 1    
    62   30   31 2    
    63   30   32 1    
    64   32   33 1    
    65   32   34 1    
    66   32  100 1    
    67   33  101 1    
    68   33  102 1    
    69   33  103 1    
    70   34   35 am   BACKBONE|DICT|INTERRES
    71   34  104 1    
    72   35   36 2    
    73   37   38 2    
    74   37   39 am   BACKBONE|DICT|INTERRES
    75   39   40 1    
    76   39  105 1    
    77   40   41 1    
    78   40   42 1    
    79   40  106 1    
    80   41  107 1    
    81   41  108 1    
    82   41  109 1    
    83   42   43 2    
    84   42   44 am   BACKBONE|DICT|INTERRES
    85   44   45 1    
    86   44  110 1    
    87   45   46 1    
    88   45   47 1    
    89   45  111 1    
    90   46  112 1    
    91   46  113 1    
    92   46  114 1    
    93   47   48 2    
    94   47   49 am   BACKBONE|DICT|INTERRES
    95   49   50 1    
    96   49  115 1    
    97   50   51 1    
    98   50   52 1    
    99   50  116 1    
   100   51  117 1    
   101   51  118 1    
   102   51  119 1    
   103   52   53 2    
   104   52   54 am   BACKBONE|DICT|INTERRES
   105   54   55 1    
   106   54  120 1    
   107   55   56 1    
   108   55   57 1    
   109   55  121 1    
   110   56  122 1    
   111   56  123 1    
   112   56  124 1    
   113   57   58 2    
   114   57   59 am   BACKBONE|DICT|INTERRES
   115   59   60 1    
   116   59  125 1    
   117   60   61 1    
   118   60   62 1    
   119   60  126 1    
   120   61  127 1    
   121   61  128 1    
   122   61  129 1    
   123   62   63 2    
   124   62   64 am   BACKBONE|DICT|INTERRES
   125   64   65 1    
   126   64  130 1    
   127   65   66 1    
   128   65   69 1    
   129   65  131 1    
   130   66   67 am   BACKBONE|DICT|INTERRES
   131   66   68 2    
   132   67  132 1    
   133   67  133 1    
   134   69   70 1    
   135   69  134 1    
   136   69  135 1    
   137   70   71 1    
   138   71  136 1    
   139   71  137 1    
@<TRIPOS>SUBSTRUCTURE
     1 UNK         1 GROUP             0       ****    0 ROOT    
