@<TRIPOS>MOLECULE
3R137
137   139    1
SMALL
USER_CHARGES


@<TRIPOS>ATOM
      1 CA         29.0374   -0.1570    1.2019 C.3       0 UNK        -0.2020 
      2 C          28.8701   -1.0322   -0.0308 C.2       0 UNK         0.4855 
      3 O          29.0120   -0.5429   -1.1503 O.2       0 UNK        -0.5197 
      4 N          28.5621   -2.3210    0.1675 N.am      1 UNK        -0.4892 
      5 CA         28.4005   -3.3179   -0.9033 C.3       1 UNK         0.0835 
      6 C6         28.7484   -4.7512   -0.4181 C.3       12 UNK        -0.0855 
      7 S7         30.4869   -4.8768    0.1453 S.3       12 UNK        -0.2931 
      8 C8         31.3476   -5.5832   -1.3060 C.3       12 UNK         0.0378 
      9 C9         31.0138   -4.8346   -2.5890 C.ar      12 UNK        -0.0802 
     10 C10        31.4404   -3.5179   -2.7715 C.ar      12 UNK        -0.0944 
     11 C11        30.9996   -2.7761   -3.8714 C.ar      12 UNK        -0.0787 
     12 C12        30.1798   -3.3848   -4.8315 C.ar      12 UNK        -0.0862 
     13 C13        29.7780   -4.7225   -4.6808 C.ar      12 UNK        -0.0733 
     14 C14        30.2056   -5.4337   -3.5566 C.ar      12 UNK        -0.0832 
     15 C15        28.8700   -5.4640   -5.6662 C.3       12 UNK         0.0240 
     16 S16        28.1213   -4.4785   -7.0019 S.3       12 UNK        -0.2522 
     17 C17        26.8407   -3.5335   -6.1040 C.3       12 UNK        -0.0967 
     18 CA         26.3706   -2.3184   -6.9377 C.3       5 UNK         0.0660 
     19 N          25.1006   -1.7550   -6.4819 N.am      5 UNK        -0.4015 
     20 C          24.2718   -1.0659   -7.2824 C.2       4 UNK         0.4946 
     21 O          24.4423   -0.9329   -8.4945 O.2       4 UNK        -0.5353 
     22 CA         23.0590   -0.3824   -6.6280 C.3       4 UNK         0.0277 
     23 CB         21.8629   -1.3461   -6.5692 C.3       4 UNK        -0.1981 
     24 N          23.3373    0.1336   -5.2873 N.am      4 UNK        -0.4209 
     25 C          24.2318    1.0913   -5.0034 C.2       3 UNK         0.4942 
     26 O          24.9009    1.6856   -5.8491 O.2       3 UNK        -0.5208 
     27 CA         24.4511    1.4011   -3.5132 C.3       3 UNK         0.0250 
     28 CB         23.4731    2.4896   -3.0432 C.3       3 UNK        -0.1990 
     29 N          24.3468    0.2319   -2.6299 N.am      3 UNK        -0.4232 
     30 C          25.0755   -0.8899   -2.7324 C.2       2 UNK         0.4993 
     31 O          25.8672   -1.1081   -3.6540 O.2       2 UNK        -0.5286 
     32 CA         24.8441   -1.9451   -1.6375 C.3       2 UNK         0.0209 
     33 CB         23.9428   -3.0914   -2.1400 C.3       2 UNK        -0.1931 
     34 N          26.1163   -2.4165   -1.0746 N.am      2 UNK        -0.4546 
     35 C          27.0239   -3.2535   -1.6022 C.2       1 UNK         0.5154 
     36 O          26.8287   -3.9548   -2.5949 O.2       1 UNK        -0.5181 
     37 C          27.4443   -1.2225   -6.9928 C.2       5 UNK         0.5014 
     38 O          28.1473   -1.1360   -7.9969 O.2       5 UNK        -0.5248 
     39 N          27.5444   -0.3981   -5.9388 N.am      6 UNK        -0.4434 
     40 CA         28.5523    0.6588   -5.8101 C.3       6 UNK         0.0363 
     41 CB         28.3864    1.3835   -4.4666 C.3       6 UNK        -0.1936 
     42 C          28.5588    1.6631   -6.9721 C.2       6 UNK         0.5081 
     43 O          29.6353    1.9980   -7.4679 O.2       6 UNK        -0.5248 
     44 N          27.3654    2.0859   -7.4105 N.am      7 UNK        -0.4718 
     45 CA         27.1772    2.9675   -8.5636 C.3       7 UNK         0.0273 
     46 CB         25.7335    3.4943   -8.5673 C.3       7 UNK        -0.1935 
     47 C          27.5060    2.2934   -9.9075 C.2       7 UNK         0.5018 
     48 O          28.0249    2.9629  -10.8009 O.2       7 UNK        -0.5186 
     49 N          27.1980    0.9948  -10.0332 N.am      8 UNK        -0.4240 
     50 CA         27.4310    0.2024  -11.2434 C.3       8 UNK         0.0235 
     51 CB         26.5312   -1.0442  -11.2263 C.3       8 UNK        -0.2000 
     52 C          28.9063   -0.1927  -11.4072 C.2       8 UNK         0.4941 
     53 O          29.4536   -0.0588  -12.5022 O.2       8 UNK        -0.5273 
     54 N          29.5225   -0.6647  -10.3162 N.am      9 UNK        -0.4262 
     55 CA         30.9281   -1.0683  -10.2485 C.3       9 UNK         0.0264 
     56 CB         31.1268   -1.9712   -9.0190 C.3       9 UNK        -0.1955 
     57 C          31.8998    0.1228  -10.1958 C.2       9 UNK         0.5031 
     58 O          33.0839   -0.0679  -10.4768 O.2       9 UNK        -0.5390 
     59 N          31.3912    1.3088   -9.8264 N.am      10 UNK        -0.4204 
     60 CA         32.1185    2.5590   -9.5862 C.3       10 UNK         0.0237 
     61 CB         32.7672    3.0919  -10.8821 C.3       10 UNK        -0.1985 
     62 C          33.1063    2.4149   -8.4141 C.2       10 UNK         0.4970 
     63 O          34.2892    2.7332   -8.5547 O.2       10 UNK        -0.4914 
     64 N          32.5937    1.9136   -7.2827 N.am      11 UNK        -0.4285 
     65 CA         33.3358    1.7547   -6.0241 C.3       11 UNK         0.1007 
     66 C          33.7911    3.1182   -5.4319 C.2       11 UNK         0.5703 
     67 N          34.9626    3.1651   -4.8119 N.am      11 UNK        -0.7361 
     68 O          33.0760    4.1173   -5.4910 O.2       11 UNK        -0.4986 
     69 C69        32.5168    0.9621   -4.9744 C.3       12 UNK        -0.0947 
     70 S70        32.2494   -0.7878   -5.4138 S.3       12 UNK        -0.2240 
     71 C71        31.3137   -1.2875   -3.9350 C.3       12 UNK         0.0194 
     72 H72        30.0430    0.2618    1.2288 H         1 UNK         0.0906 
     73 H73        28.3258    0.6679    1.1759 H         1 UNK         0.0906 
     74 H74        28.8780   -0.7147    2.1246 H         1 UNK         0.0906 
     75 H75        28.4791   -2.6761    1.1102 H         1 UNK         0.3140 
     76 H76        29.1003   -3.0574   -1.6949 H         1 UNK         0.1085 
     77 H77        28.0952   -5.0404    0.4069 H         1 UNK         0.0836 
     78 H78        28.5760   -5.4877   -1.2048 H         1 UNK         0.0836 
     79 H79        32.4244   -5.5477   -1.1347 H         1 UNK         0.0731 
     80 H80        31.0858   -6.6390   -1.3928 H         1 UNK         0.0731 
     81 H81        32.0434   -3.0471   -2.0068 H         1 UNK         0.1312 
     82 H82        29.8414   -2.7996   -5.6747 H         1 UNK         0.1406 
     83 H83        29.8741   -6.4539   -3.4160 H         1 UNK         0.1631 
     84 H84        28.0651   -5.9533   -5.1149 H         1 UNK         0.0717 
     85 H85        29.4534   -6.2606   -6.1297 H         1 UNK         0.0717 
     86 H86        26.0037   -4.2062   -5.9110 H         1 UNK         0.0934 
     87 H87        27.2134   -3.2248   -5.1251 H         1 UNK         0.0934 
     88 H88        26.2191   -2.6721   -7.9606 H         1 UNK         0.0739 
     89 H89        24.9433   -1.7510   -5.4816 H         1 UNK         0.3093 
     90 H90        22.7845    0.4672   -7.2572 H         1 UNK         0.0818 
     91 H91        20.9694   -0.8480   -6.1922 H         1 UNK         0.0819 
     92 H92        21.6226   -1.7289   -7.5622 H         1 UNK         0.0819 
     93 H93        22.0651   -2.2058   -5.9291 H         1 UNK         0.0819 
     94 H94        22.8353   -0.2900   -4.5208 H         1 UNK         0.3041 
     95 H95        25.4631    1.7922   -3.4058 H         1 UNK         0.0784 
     96 H96        23.5472    3.3781   -3.6724 H         1 UNK         0.0793 
     97 H97        22.4377    2.1488   -3.0817 H         1 UNK         0.0793 
     98 H98        23.6870    2.8023   -2.0209 H         1 UNK         0.0793 
     99 H99        23.7047    0.3216   -1.8550 H         1 UNK         0.3024 
    100 H100       24.3248   -1.4650   -0.8063 H         1 UNK         0.1171 
    101 H101       22.9419   -2.7241   -2.3696 H         1 UNK         0.0786 
    102 H102       23.8370   -3.8736   -1.3883 H         1 UNK         0.0786 
    103 H103       24.3295   -3.5500   -3.0507 H         1 UNK         0.0786 
    104 H104       26.4277   -1.9098   -0.2577 H         1 UNK         0.2977 
    105 H105       26.9363   -0.5547   -5.1376 H         1 UNK         0.3127 
    106 H106       29.5213    0.1622   -5.8205 H         1 UNK         0.0770 
    107 H107       27.4722    1.9748   -4.4439 H         1 UNK         0.0814 
    108 H108       29.2159    2.0687   -4.2895 H         1 UNK         0.0814 
    109 H109       28.3567    0.6835   -3.6310 H         1 UNK         0.0814 
    110 H110       26.5273    1.7907   -6.9141 H         1 UNK         0.2983 
    111 H111       27.8518    3.8192   -8.4502 H         1 UNK         0.0947 
    112 H112       25.5653    4.1722   -9.4053 H         1 UNK         0.0806 
    113 H113       25.5114    4.0461   -7.6536 H         1 UNK         0.0806 
    114 H114       25.0088    2.6830   -8.6501 H         1 UNK         0.0806 
    115 H115       26.8105    0.5089   -9.2357 H         1 UNK         0.3000 
    116 H116       27.1507    0.8063  -12.1094 H         1 UNK         0.0850 
    117 H117       26.6775   -1.6443  -12.1254 H         1 UNK         0.0810 
    118 H118       25.4767   -0.7700  -11.1874 H         1 UNK         0.0810 
    119 H119       26.7391   -1.6845  -10.3682 H         1 UNK         0.0810 
    120 H120       28.9801   -0.7788   -9.4567 H         1 UNK         0.3040 
    121 H121       31.1643   -1.6484  -11.1430 H         1 UNK         0.0766 
    122 H122       32.1569   -2.3235   -8.9511 H         1 UNK         0.0812 
    123 H123       30.4834   -2.8504   -9.0617 H         1 UNK         0.0812 
    124 H124       30.9022   -1.4412   -8.0925 H         1 UNK         0.0812 
    125 H125       30.4150    1.3271   -9.5601 H         1 UNK         0.3205 
    126 H126       31.3727    3.2904   -9.2705 H         1 UNK         0.0754 
    127 H127       33.2062    4.0769  -10.7195 H         1 UNK         0.0769 
    128 H128       32.0310    3.1924  -11.6797 H         1 UNK         0.0769 
    129 H129       33.5630    2.4385  -11.2406 H         1 UNK         0.0769 
    130 H130       31.5946    1.7391   -7.2463 H         1 UNK         0.2981 
    131 H131       34.2347    1.1799   -6.2557 H         1 UNK         0.0541 
    132 H132       35.5516    2.3494   -4.7465 H         1 UNK         0.3459 
    133 H133       35.2681    4.0366   -4.4079 H         1 UNK         0.3459 
    134 H134       31.5490    1.4384   -4.8098 H         1 UNK         0.0612 
    135 H135       33.0296    0.9728   -4.0104 H         1 UNK         0.0612 
    136 H136       31.8792   -0.9844   -3.0524 H         1 UNK         0.0624 
    137 H137       30.3761   -0.7354   -3.8880 H         1 UNK         0.0624 
@<TRIPOS>BOND
     1    1    2 1    
     2    1   72 1    
     3    1   73 1    
     4    1   74 1    
     5    2    3 2    
     6    2    4 am   BACKBONE|DICT|INTERRES
     7    4    5 1    
     8    4   75 1    
     9    5    6 1    
    10    5   35 1    
    11    5   76 1    
    12    6    7 1    
    13    6   77 1    
    14    6   78 1    
    15    7    8 1    
    16    8    9 1    
    17    8   79 1    
    18    8   80 1    
    19    9   10 ar   
    20    9   14 ar   
    21   10   11 ar   
    22   10   81 1    
    23   11   12 ar   
    24   11   71 1    
    25   12   13 ar   
    26   12   82 1    
    27   13   14 ar   
    28   13   15 1    
    29   14   83 1    
    30   15   16 1    
    31   15   84 1    
    32   15   85 1    
    33   16   17 1    
    34   17   18 1    
    35   17   86 1    
    36   17   87 1    
    37   18   19 1    
    38   18   37 1    
    39   18   88 1    
    40   19   20 am   BACKBONE|DICT|INTERRES
    41   19   89 1    
    42   20   21 2    
    43   20   22 1    
    44   22   23 1    
    45   22   24 1    
    46   22   90 1    
    47   23   91 1    
    48   23   92 1    
    49   23   93 1    
    50   24   25 am   BACKBONE|DICT|INTERRES
    51   24   94 1    
    52   25   26 2    
    53   25   27 1    
    54   27   28 1    
    55   27   29 1    
    56   27   95 1    
    57   28   96 1    
    58   28   97 1    
    59   28   98 1    
    60   29   30 am   BACKBONE|DICT|INTERRES
    61   29   99 1    
    62   30   31 2    
    63   30   32 1    
    64   32   33 1    
    65   32   34 1    
    66   32  100 1    
    67   33  101 1    
    68   33  102 1    
    69   33  103 1    
    70   34   35 am   BACKBONE|DICT|INTERRES
    71   34  104 1    
    72   35   36 2    
    73   37   38 2    
    74   37   39 am   BACKBONE|DICT|INTERRES
    75   39   40 1    
    76   39  105 1    
    77   40   41 1    
    78   40   42 1    
    79   40  106 1    
    80   41  107 1    
    81   41  108 1    
    82   41  109 1    
    83   42   43 2    
    84   42   44 am   BACKBONE|DICT|INTERRES
    85   44   45 1    
    86   44  110 1    
    87   45   46 1    
    88   45   47 1    
    89   45  111 1    
    90   46  112 1    
    91   46  113 1    
    92   46  114 1    
    93   47   48 2    
    94   47   49 am   BACKBONE|DICT|INTERRES
    95   49   50 1    
    96   49  115 1    
    97   50   51 1    
    98   50   52 1    
    99   50  116 1    
   100   51  117 1    
   101   51  118 1    
   102   51  119 1    
   103   52   53 2    
   104   52   54 am   BACKBONE|DICT|INTERRES
   105   54   55 1    
   106   54  120 1    
   107   55   56 1    
   108   55   57 1    
   109   55  121 1    
   110   56  122 1    
   111   56  123 1    
   112   56  124 1    
   113   57   58 2    
   114   57   59 am   BACKBONE|DICT|INTERRES
   115   59   60 1    
   116   59  125 1    
   117   60   61 1    
   118   60   62 1    
   119   60  126 1    
   120   61  127 1    
   121   61  128 1    
   122   61  129 1    
   123   62   63 2    
   124   62   64 am   BACKBONE|DICT|INTERRES
   125   64   65 1    
   126   64  130 1    
   127   65   66 1    
   128   65   69 1    
   129   65  131 1    
   130   66   67 am   BACKBONE|DICT|INTERRES
   131   66   68 2    
   132   67  132 1    
   133   67  133 1    
   134   69   70 1    
   135   69  134 1    
   136   69  135 1    
   137   70   71 1    
   138   71  136 1    
   139   71  137 1    
@<TRIPOS>SUBSTRUCTURE
     1 UNK         1 GROUP             0       ****    0 ROOT    
