@<TRIPOS>MOLECULE
3R137
137   139    1
SMALL
USER_CHARGES


@<TRIPOS>ATOM
      1 CA         25.4353   -5.9660   -6.1414 C.3       0 UNK        -0.2020 
      2 C          25.5366   -5.4965   -4.6983 C.2       0 UNK         0.4855 
      3 O          24.5309   -5.0926   -4.1140 O.2       0 UNK        -0.5197 
      4 N          26.7475   -5.5326   -4.1257 N.am      1 UNK        -0.4892 
      5 CA         27.0719   -5.0999   -2.7610 C.3       1 UNK         0.0835 
      6 C6         28.5603   -5.3838   -2.4446 C.3       12 UNK        -0.0855 
      7 S7         28.9382   -5.2585   -0.6657 S.3       12 UNK        -0.2931 
      8 C8         30.6919   -4.7636   -0.7096 C.3       12 UNK         0.0378 
      9 C9         30.8976   -3.3443   -1.2273 C.ar      12 UNK        -0.0802 
     10 C10        31.6616   -3.1135   -2.3769 C.ar      12 UNK        -0.0944 
     11 C11        31.9047   -1.8080   -2.8149 C.ar      12 UNK        -0.0787 
     12 C12        31.3704   -0.7317   -2.1016 C.ar      12 UNK        -0.0862 
     13 C13        30.5813   -0.9473   -0.9672 C.ar      12 UNK        -0.0733 
     14 C14        30.3586   -2.2574   -0.5313 C.ar      12 UNK        -0.0832 
     15 C15        29.9806    0.2212   -0.1888 C.3       12 UNK         0.0240 
     16 S16        29.2671    1.5341   -1.2403 S.3       12 UNK        -0.2522 
     17 C17        28.0539    0.6122   -2.2427 C.3       12 UNK        -0.0967 
     18 CA         28.2865    0.8098   -3.7646 C.3       5 UNK         0.0660 
     19 N          27.8735   -0.3639   -4.5356 N.am      5 UNK        -0.4015 
     20 C          28.0668   -0.5382   -5.8504 C.2       4 UNK         0.4946 
     21 O          28.7363    0.2167   -6.5502 O.2       4 UNK        -0.5353 
     22 CA         27.3631   -1.7384   -6.5050 C.3       4 UNK         0.0277 
     23 CB         28.2600   -2.9876   -6.4766 C.3       4 UNK        -0.1981 
     24 N          26.0707   -2.0285   -5.8775 N.am      4 UNK        -0.4209 
     25 C          24.9746   -1.2696   -6.0297 C.2       3 UNK         0.4942 
     26 O          24.9185   -0.2904   -6.7709 O.2       3 UNK        -0.5208 
     27 CA         23.7463   -1.6270   -5.1774 C.3       3 UNK         0.0250 
     28 CB         22.8644   -2.6634   -5.8905 C.3       3 UNK        -0.1990 
     29 N          24.1150   -2.1071   -3.8435 N.am      3 UNK        -0.4232 
     30 C          24.6368   -1.3172   -2.8919 C.2       2 UNK         0.4993 
     31 O          24.8110   -0.1065   -3.0346 O.2       2 UNK        -0.5286 
     32 CA         25.0984   -1.9927   -1.5869 C.3       2 UNK         0.0209 
     33 CB         23.9437   -2.0552   -0.5752 C.3       2 UNK        -0.1931 
     34 N          25.6520   -3.3373   -1.7845 N.am      2 UNK        -0.4546 
     35 C          26.7102   -3.6137   -2.5594 C.2       1 UNK         0.5154 
     36 O          27.3473   -2.7513   -3.1636 O.2       1 UNK        -0.5181 
     37 C          27.5971    2.0918   -4.2798 C.2       5 UNK         0.5014 
     38 O          28.2680    3.1055   -4.4811 O.2       5 UNK        -0.5248 
     39 N          26.2735    2.0144   -4.4950 N.am      6 UNK        -0.4434 
     40 CA         25.4531    3.0854   -5.0633 C.3       6 UNK         0.0363 
     41 CB         23.9636    2.7309   -4.9218 C.3       6 UNK        -0.1936 
     42 C          25.8198    3.3897   -6.5256 C.2       6 UNK         0.5081 
     43 O          26.1589    4.5306   -6.8435 O.2       6 UNK        -0.5248 
     44 N          25.7855    2.3660   -7.3888 N.am      7 UNK        -0.4718 
     45 CA         26.2062    2.4410   -8.7897 C.3       7 UNK         0.0273 
     46 CB         25.4204    1.3997   -9.6085 C.3       7 UNK        -0.1935 
     47 C          27.7282    2.2435   -8.8916 C.2       7 UNK         0.5018 
     48 O          28.1798    1.2495   -9.4626 O.2       7 UNK        -0.5186 
     49 N          28.4807    3.1953   -8.3174 N.am      8 UNK        -0.4240 
     50 CA         29.9253    3.1612   -8.0385 C.3       8 UNK         0.0235 
     51 CB         30.3581    4.5302   -7.4907 C.3       8 UNK        -0.2000 
     52 C          30.8541    2.7306   -9.1891 C.2       8 UNK         0.4941 
     53 O          31.9507    2.2399   -8.9178 O.2       8 UNK        -0.5273 
     54 N          30.4028    2.8724  -10.4428 N.am      9 UNK        -0.4262 
     55 CA         31.0553    2.3341  -11.6400 C.3       9 UNK         0.0264 
     56 CB         30.2852    2.8018  -12.8854 C.3       9 UNK        -0.1955 
     57 C          31.1982    0.7969  -11.6402 C.2       9 UNK         0.5031 
     58 O          32.0933    0.2862  -12.3150 O.2       9 UNK        -0.5390 
     59 N          30.3408    0.0878  -10.8885 N.am      10 UNK        -0.4204 
     60 CA         30.4374   -1.3551  -10.6557 C.3       10 UNK         0.0237 
     61 CB         29.1344   -1.8610  -10.0191 C.3       10 UNK        -0.1985 
     62 C          31.6468   -1.7318   -9.7817 C.2       10 UNK         0.4970 
     63 O          32.2973   -2.7390  -10.0637 O.2       10 UNK        -0.4914 
     64 N          31.9330   -0.9201   -8.7546 N.am      11 UNK        -0.4285 
     65 CA         33.1469   -1.0279   -7.9324 C.3       11 UNK         0.1007 
     66 C          34.3984   -0.4952   -8.6803 C.2       11 UNK         0.5703 
     67 N          34.3141    0.6575   -9.3332 N.am      11 UNK        -0.7361 
     68 O          35.4488   -1.1324   -8.6682 O.2       11 UNK        -0.4986 
     69 C69        32.9900   -0.3191   -6.5634 C.3       12 UNK        -0.0947 
     70 S70        31.7526   -1.1160   -5.4867 S.3       12 UNK        -0.2240 
     71 C71        32.7673   -1.5430   -4.0387 C.3       12 UNK         0.0194 
     72 H72        24.6198   -6.6811   -6.2465 H         1 UNK         0.0906 
     73 H73        25.2353   -5.1213   -6.7997 H         1 UNK         0.0906 
     74 H74        26.3523   -6.4493   -6.4780 H         1 UNK         0.0906 
     75 H75        27.5320   -5.8639   -4.6688 H         1 UNK         0.3140 
     76 H76        26.4603   -5.7014   -2.0849 H         1 UNK         0.1085 
     77 H77        28.8217   -6.3970   -2.7542 H         1 UNK         0.0836 
     78 H78        29.2097   -4.7188   -3.0176 H         1 UNK         0.0836 
     79 H79        31.2499   -5.4842   -1.3098 H         1 UNK         0.0731 
     80 H80        31.0988   -4.8297    0.3004 H         1 UNK         0.0731 
     81 H81        32.0837   -3.9474   -2.9209 H         1 UNK         0.1312 
     82 H82        31.5629    0.2772   -2.4399 H         1 UNK         0.1406 
     83 H83        29.7662   -2.4381    0.3556 H         1 UNK         0.1631 
     84 H84        30.7585    0.6594    0.4375 H         1 UNK         0.0717 
     85 H85        29.2012   -0.1316    0.4885 H         1 UNK         0.0717 
     86 H86        28.1299   -0.4453   -1.9882 H         1 UNK         0.0934 
     87 H87        27.0479    0.9075   -1.9391 H         1 UNK         0.0934 
     88 H88        29.3586    0.9168   -3.9453 H         1 UNK         0.0739 
     89 H89        27.4321   -1.1190   -4.0169 H         1 UNK         0.3093 
     90 H90        27.1754   -1.4768   -7.5484 H         1 UNK         0.0818 
     91 H91        28.4850   -3.3064   -5.4589 H         1 UNK         0.0819 
     92 H92        27.7958   -3.8231   -7.0000 H         1 UNK         0.0819 
     93 H93        29.2147   -2.7881   -6.9654 H         1 UNK         0.0819 
     94 H94        26.0547   -2.7693   -5.1917 H         1 UNK         0.3041 
     95 H95        23.1559   -0.7162   -5.0547 H         1 UNK         0.0784 
     96 H96        22.5363   -2.2902   -6.8617 H         1 UNK         0.0793 
     97 H97        23.3930   -3.5997   -6.0655 H         1 UNK         0.0793 
     98 H98        21.9688   -2.8879   -5.3109 H         1 UNK         0.0793 
     99 H99        24.0482   -3.1066   -3.6771 H         1 UNK         0.3024 
    100 H100       25.8897   -1.3707   -1.1635 H         1 UNK         0.1171 
    101 H101       24.2795   -2.4415    0.3874 H         1 UNK         0.0786 
    102 H102       23.5282   -1.0622   -0.3963 H         1 UNK         0.0786 
    103 H103       23.1302   -2.6904   -0.9281 H         1 UNK         0.0786 
    104 H104       25.1527   -4.1013   -1.3517 H         1 UNK         0.2977 
    105 H105       25.7897    1.1603   -4.2328 H         1 UNK         0.3127 
    106 H106       25.6398    3.9899   -4.4805 H         1 UNK         0.0770 
    107 H107       23.7098    1.8146   -5.4554 H         1 UNK         0.0814 
    108 H108       23.3339    3.5267   -5.3216 H         1 UNK         0.0814 
    109 H109       23.6879    2.5927   -3.8761 H         1 UNK         0.0814 
    110 H110       25.5186    1.4414   -7.0539 H         1 UNK         0.2983 
    111 H111       25.9693    3.4282   -9.1927 H         1 UNK         0.0947 
    112 H112       25.6784    1.4606  -10.6664 H         1 UNK         0.0806 
    113 H113       24.3452    1.5579   -9.5252 H         1 UNK         0.0806 
    114 H114       25.6347    0.3818   -9.2800 H         1 UNK         0.0806 
    115 H115       27.9692    3.9429   -7.8623 H         1 UNK         0.3000 
    116 H116       30.0640    2.4256   -7.2438 H         1 UNK         0.0850 
    117 H117       31.4204    4.5355   -7.2417 H         1 UNK         0.0810 
    118 H118       29.8141    4.7806   -6.5793 H         1 UNK         0.0810 
    119 H119       30.1874    5.3265   -8.2162 H         1 UNK         0.0810 
    120 H120       29.4836    3.2705  -10.5671 H         1 UNK         0.3040 
    121 H121       32.0632    2.7524  -11.6806 H         1 UNK         0.0766 
    122 H122       30.2525    3.8897  -12.9480 H         1 UNK         0.0812 
    123 H123       29.2589    2.4322  -12.8871 H         1 UNK         0.0812 
    124 H124       30.7629    2.4411  -13.7976 H         1 UNK         0.0812 
    125 H125       29.6046    0.5802  -10.3809 H         1 UNK         0.3205 
    126 H126       30.5578   -1.8471  -11.6232 H         1 UNK         0.0754 
    127 H127       29.1717   -2.9371   -9.8446 H         1 UNK         0.0769 
    128 H128       28.2750   -1.6619  -10.6595 H         1 UNK         0.0769 
    129 H129       28.9535   -1.3772   -9.0595 H         1 UNK         0.0769 
    130 H130       31.3668   -0.0979   -8.6025 H         1 UNK         0.2981 
    131 H131       33.3257   -2.0863   -7.7315 H         1 UNK         0.0541 
    132 H132       33.4618    1.2109   -9.2831 H         1 UNK         0.3459 
    133 H133       35.1182    1.0104   -9.8259 H         1 UNK         0.3459 
    134 H134       33.9482   -0.2941   -6.0414 H         1 UNK         0.0612 
    135 H135       32.6978    0.7233   -6.7022 H         1 UNK         0.0612 
    136 H136       33.4517   -0.7236   -3.8135 H         1 UNK         0.0624 
    137 H137       33.3863   -2.4095   -4.2762 H         1 UNK         0.0624 
@<TRIPOS>BOND
     1    1    2 1    
     2    1   72 1    
     3    1   73 1    
     4    1   74 1    
     5    2    3 2    
     6    2    4 am   BACKBONE|DICT|INTERRES
     7    4    5 1    
     8    4   75 1    
     9    5    6 1    
    10    5   35 1    
    11    5   76 1    
    12    6    7 1    
    13    6   77 1    
    14    6   78 1    
    15    7    8 1    
    16    8    9 1    
    17    8   79 1    
    18    8   80 1    
    19    9   10 ar   
    20    9   14 ar   
    21   10   11 ar   
    22   10   81 1    
    23   11   12 ar   
    24   11   71 1    
    25   12   13 ar   
    26   12   82 1    
    27   13   14 ar   
    28   13   15 1    
    29   14   83 1    
    30   15   16 1    
    31   15   84 1    
    32   15   85 1    
    33   16   17 1    
    34   17   18 1    
    35   17   86 1    
    36   17   87 1    
    37   18   19 1    
    38   18   37 1    
    39   18   88 1    
    40   19   20 am   BACKBONE|DICT|INTERRES
    41   19   89 1    
    42   20   21 2    
    43   20   22 1    
    44   22   23 1    
    45   22   24 1    
    46   22   90 1    
    47   23   91 1    
    48   23   92 1    
    49   23   93 1    
    50   24   25 am   BACKBONE|DICT|INTERRES
    51   24   94 1    
    52   25   26 2    
    53   25   27 1    
    54   27   28 1    
    55   27   29 1    
    56   27   95 1    
    57   28   96 1    
    58   28   97 1    
    59   28   98 1    
    60   29   30 am   BACKBONE|DICT|INTERRES
    61   29   99 1    
    62   30   31 2    
    63   30   32 1    
    64   32   33 1    
    65   32   34 1    
    66   32  100 1    
    67   33  101 1    
    68   33  102 1    
    69   33  103 1    
    70   34   35 am   BACKBONE|DICT|INTERRES
    71   34  104 1    
    72   35   36 2    
    73   37   38 2    
    74   37   39 am   BACKBONE|DICT|INTERRES
    75   39   40 1    
    76   39  105 1    
    77   40   41 1    
    78   40   42 1    
    79   40  106 1    
    80   41  107 1    
    81   41  108 1    
    82   41  109 1    
    83   42   43 2    
    84   42   44 am   BACKBONE|DICT|INTERRES
    85   44   45 1    
    86   44  110 1    
    87   45   46 1    
    88   45   47 1    
    89   45  111 1    
    90   46  112 1    
    91   46  113 1    
    92   46  114 1    
    93   47   48 2    
    94   47   49 am   BACKBONE|DICT|INTERRES
    95   49   50 1    
    96   49  115 1    
    97   50   51 1    
    98   50   52 1    
    99   50  116 1    
   100   51  117 1    
   101   51  118 1    
   102   51  119 1    
   103   52   53 2    
   104   52   54 am   BACKBONE|DICT|INTERRES
   105   54   55 1    
   106   54  120 1    
   107   55   56 1    
   108   55   57 1    
   109   55  121 1    
   110   56  122 1    
   111   56  123 1    
   112   56  124 1    
   113   57   58 2    
   114   57   59 am   BACKBONE|DICT|INTERRES
   115   59   60 1    
   116   59  125 1    
   117   60   61 1    
   118   60   62 1    
   119   60  126 1    
   120   61  127 1    
   121   61  128 1    
   122   61  129 1    
   123   62   63 2    
   124   62   64 am   BACKBONE|DICT|INTERRES
   125   64   65 1    
   126   64  130 1    
   127   65   66 1    
   128   65   69 1    
   129   65  131 1    
   130   66   67 am   BACKBONE|DICT|INTERRES
   131   66   68 2    
   132   67  132 1    
   133   67  133 1    
   134   69   70 1    
   135   69  134 1    
   136   69  135 1    
   137   70   71 1    
   138   71  136 1    
   139   71  137 1    
@<TRIPOS>SUBSTRUCTURE
     1 UNK         1 GROUP             0       ****    0 ROOT    
