@<TRIPOS>MOLECULE
3R137
137   139    1
SMALL
USER_CHARGES


@<TRIPOS>ATOM
      1 CA         30.7333   -0.0682   -1.4572 C.3       0 UNK        -0.2020 
      2 C          30.4096   -0.8010   -0.1588 C.2       0 UNK         0.4855 
      3 O          30.9689   -0.4595    0.8809 O.2       0 UNK        -0.5197 
      4 N          29.5223   -1.8068   -0.1543 N.am      1 UNK        -0.4892 
      5 CA         28.7505   -2.3302   -1.2951 C.3       1 UNK         0.0835 
      6 C6         28.2556   -3.7756   -1.0410 C.3       12 UNK        -0.0855 
      7 S7         29.6342   -4.9094   -0.6513 S.3       12 UNK        -0.2931 
      8 C8         29.7407   -5.9365   -2.1555 C.3       12 UNK         0.0378 
      9 C9         30.0571   -5.1548   -3.4288 C.ar      12 UNK        -0.0802 
     10 C10        31.0843   -4.2026   -3.4630 C.ar      12 UNK        -0.0944 
     11 C11        31.3856   -3.5241   -4.6483 C.ar      12 UNK        -0.0787 
     12 C12        30.6568   -3.8119   -5.8048 C.ar      12 UNK        -0.0862 
     13 C13        29.6342   -4.7631   -5.7934 C.ar      12 UNK        -0.0733 
     14 C14        29.3436   -5.4336   -4.5998 C.ar      12 UNK        -0.0832 
     15 C15        28.9054   -5.0845   -7.0970 C.3       12 UNK         0.0240 
     16 S16        27.1219   -5.4317   -6.9214 S.3       12 UNK        -0.2522 
     17 C17        26.4824   -3.8893   -6.1927 C.3       12 UNK        -0.0967 
     18 CA         26.2620   -2.7658   -7.2455 C.3       5 UNK         0.0660 
     19 N          24.9661   -2.1040   -7.0752 N.am      5 UNK        -0.4015 
     20 C          24.4683   -1.1278   -7.8498 C.2       4 UNK         0.4946 
     21 O          25.0118   -0.7184   -8.8751 O.2       4 UNK        -0.5353 
     22 CA         23.1625   -0.4582   -7.3740 C.3       4 UNK         0.0277 
     23 CB         21.9515   -1.0804   -8.0866 C.3       4 UNK        -0.1981 
     24 N          22.9574   -0.5137   -5.9201 N.am      4 UNK        -0.4209 
     25 C          23.8093   -0.0242   -5.0077 C.2       3 UNK         0.4942 
     26 O          24.8418    0.5907   -5.3026 O.2       3 UNK        -0.5208 
     27 CA         23.4975   -0.3350   -3.5343 C.3       3 UNK         0.0250 
     28 CB         23.3362   -1.8594   -3.3180 C.3       3 UNK        -0.1990 
     29 N          24.6230    0.1825   -2.7654 N.am      3 UNK        -0.4232 
     30 C          24.8566    0.1098   -1.4530 C.2       2 UNK         0.4993 
     31 O          24.0664   -0.3421   -0.6215 O.2       2 UNK        -0.5286 
     32 CA         26.2395    0.6142   -1.0045 C.3       2 UNK         0.0209 
     33 CB         26.1463    1.4393    0.2914 C.3       2 UNK        -0.1931 
     34 N          27.2138   -0.4656   -0.8110 N.am      2 UNK        -0.4546 
     35 C          27.5752   -1.4122   -1.6942 C.2       1 UNK         0.5154 
     36 O          27.0626   -1.5585   -2.8039 O.2       1 UNK        -0.5181 
     37 C          27.4230   -1.7510   -7.2339 C.2       5 UNK         0.5014 
     38 O          28.1982   -1.7018   -8.1897 O.2       5 UNK        -0.5248 
     39 N          27.4948   -0.9293   -6.1755 N.am      6 UNK        -0.4434 
     40 CA         28.5048    0.1193   -6.0332 C.3       6 UNK         0.0363 
     41 CB         28.5591    0.6278   -4.5881 C.3       6 UNK        -0.1936 
     42 C          28.3208    1.2848   -7.0078 C.2       6 UNK         0.5081 
     43 O          29.3212    1.8767   -7.4090 O.2       6 UNK        -0.5248 
     44 N          27.0729    1.5804   -7.3967 N.am      7 UNK        -0.4718 
     45 CA         26.7632    2.5694   -8.4328 C.3       7 UNK         0.0273 
     46 CB         25.2507    2.8361   -8.4722 C.3       7 UNK        -0.1935 
     47 C          27.2856    2.1432   -9.8168 C.2       7 UNK         0.5018 
     48 O          27.8323    2.9785  -10.5373 O.2       7 UNK        -0.5186 
     49 N          27.1349    0.8523  -10.1472 N.am      8 UNK        -0.4240 
     50 CA         27.6585    0.2423  -11.3695 C.3       8 UNK         0.0235 
     51 CB         26.9797   -1.1182  -11.5986 C.3       8 UNK        -0.2000 
     52 C          29.1889    0.0933  -11.3468 C.2       8 UNK         0.4941 
     53 O          29.8420    0.4456  -12.3297 O.2       8 UNK        -0.5273 
     54 N          29.7335   -0.4304  -10.2388 N.am      9 UNK        -0.4262 
     55 CA         31.1671   -0.6910  -10.0670 C.3       9 UNK         0.0264 
     56 CB         31.3624   -1.6756   -8.9050 C.3       9 UNK        -0.1955 
     57 C          32.0174    0.5703   -9.8349 C.2       9 UNK         0.5031 
     58 O          33.2237    0.5239  -10.0791 O.2       9 UNK        -0.5390 
     59 N          31.3908    1.6490   -9.3436 N.am      10 UNK        -0.4204 
     60 CA         31.9867    2.9259   -8.9316 C.3       10 UNK         0.0237 
     61 CB         32.6884    3.6341  -10.1110 C.3       10 UNK        -0.1985 
     62 C          32.8754    2.8133   -7.6746 C.2       10 UNK         0.4970 
     63 O          33.7426    3.6648   -7.4703 O.2       10 UNK        -0.4914 
     64 N          32.6359    1.7893   -6.8425 N.am      11 UNK        -0.4285 
     65 CA         33.3084    1.5826   -5.5486 C.3       11 UNK         0.1007 
     66 C          32.6923    2.3929   -4.3695 C.2       11 UNK         0.5703 
     67 N          31.5744    3.0876   -4.5511 N.am      11 UNK        -0.7361 
     68 O          33.2509    2.4066   -3.2752 O.2       11 UNK        -0.4986 
     69 C69        33.4802    0.0751   -5.2162 C.3       12 UNK        -0.0947 
     70 S70        31.9112   -0.8325   -5.0346 S.3       12 UNK        -0.2240 
     71 C71        32.5225   -2.5120   -4.7031 C.3       12 UNK         0.0194 
     72 H72        31.5834    0.5999   -1.3176 H         1 UNK         0.0906 
     73 H73        30.9999   -0.7660   -2.2485 H         1 UNK         0.0906 
     74 H74        29.8892    0.5381   -1.7825 H         1 UNK         0.0906 
     75 H75        29.3657   -2.2952    0.7165 H         1 UNK         0.3140 
     76 H76        29.4053   -2.3694   -2.1663 H         1 UNK         0.1085 
     77 H77        27.7131   -4.1554   -1.9096 H         1 UNK         0.0836 
     78 H78        27.5491   -3.7994   -0.2090 H         1 UNK         0.0836 
     79 H79        30.5197   -6.6858   -2.0092 H         1 UNK         0.0731 
     80 H80        28.8041   -6.4864   -2.2617 H         1 UNK         0.0731 
     81 H81        31.6542   -3.9976   -2.5670 H         1 UNK         0.1312 
     82 H82        30.9012   -3.2995   -6.7230 H         1 UNK         0.1406 
     83 H83        28.5685   -6.1877   -4.5871 H         1 UNK         0.1631 
     84 H84        29.3806   -5.9576   -7.5456 H         1 UNK         0.0717 
     85 H85        29.0284   -4.2724   -7.8146 H         1 UNK         0.0717 
     86 H86        25.5357   -4.1617   -5.7237 H         1 UNK         0.0934 
     87 H87        27.1191   -3.5771   -5.3614 H         1 UNK         0.0934 
     88 H88        26.2357   -3.2086   -8.2437 H         1 UNK         0.0739 
     89 H89        24.4299   -2.3725   -6.2649 H         1 UNK         0.3093 
     90 H90        23.2164    0.5954   -7.6521 H         1 UNK         0.0818 
     91 H91        21.0297   -0.5543   -7.8379 H         1 UNK         0.0819 
     92 H92        22.0684   -1.0281   -9.1703 H         1 UNK         0.0819 
     93 H93        21.8218   -2.1311   -7.8237 H         1 UNK         0.0819 
     94 H94        22.1260   -0.9906   -5.6006 H         1 UNK         0.3041 
     95 H95        22.5881    0.1930   -3.2427 H         1 UNK         0.0784 
     96 H96        22.5231   -2.2725   -3.9152 H         1 UNK         0.0793 
     97 H97        24.2475   -2.3993   -3.5798 H         1 UNK         0.0793 
     98 H98        23.1009   -2.0977   -2.2813 H         1 UNK         0.0793 
     99 H99        25.3340    0.5724   -3.3744 H         1 UNK         0.3024 
    100 H100       26.6333    1.2710   -1.7830 H         1 UNK         0.1171 
    101 H101       25.4268    2.2525    0.1854 H         1 UNK         0.0786 
    102 H102       27.1059    1.8894    0.5467 H         1 UNK         0.0786 
    103 H103       25.8258    0.8296    1.1373 H         1 UNK         0.0786 
    104 H104       27.6978   -0.4670    0.0753 H         1 UNK         0.2977 
    105 H105       26.8092   -1.0030   -5.4359 H         1 UNK         0.3127 
    106 H106       29.4690   -0.3276   -6.2714 H         1 UNK         0.0770 
    107 H107       27.5775    0.9324   -4.2255 H         1 UNK         0.0814 
    108 H108       29.2267    1.4846   -4.4937 H         1 UNK         0.0814 
    109 H109       28.9493   -0.1464   -3.9311 H         1 UNK         0.0814 
    110 H110       26.3003    1.0729   -6.9825 H         1 UNK         0.2983 
    111 H111       27.2648    3.5009   -8.1607 H         1 UNK         0.0947 
    112 H112       25.0238    3.6687   -9.1392 H         1 UNK         0.0806 
    113 H113       24.8632    3.0938   -7.4862 H         1 UNK         0.0806 
    114 H114       24.6972    1.9724   -8.8384 H         1 UNK         0.0806 
    115 H115       26.6136    0.2452   -9.5199 H         1 UNK         0.3000 
    116 H116       27.4008    0.8923  -12.2086 H         1 UNK         0.0850 
    117 H117       27.3466   -1.5904  -12.5108 H         1 UNK         0.0810 
    118 H118       25.8999   -1.0079  -11.7007 H         1 UNK         0.0810 
    119 H119       27.1651   -1.8080  -10.7742 H         1 UNK         0.0810 
    120 H120       29.1180   -0.7539   -9.4932 H         1 UNK         0.3040 
    121 H121       31.5363   -1.1670  -10.9780 H         1 UNK         0.0766 
    122 H122       32.4173   -1.9138   -8.7607 H         1 UNK         0.0812 
    123 H123       30.8394   -2.6136   -9.0916 H         1 UNK         0.0812 
    124 H124       30.9893   -1.2628   -7.9679 H         1 UNK         0.0812 
    125 H125       30.4091    1.5554   -9.1021 H         1 UNK         0.3205 
    126 H126       31.1458    3.5553   -8.6368 H         1 UNK         0.0754 
    127 H127       32.9651    4.6551   -9.8450 H         1 UNK         0.0769 
    128 H128       32.0356    3.6936  -10.9819 H         1 UNK         0.0769 
    129 H129       33.6022    3.1200  -10.4097 H         1 UNK         0.0769 
    130 H130       31.8781    1.1576   -7.0542 H         1 UNK         0.2981 
    131 H131       34.3217    1.9760   -5.6474 H         1 UNK         0.0541 
    132 H132       31.1084    3.0821   -5.4442 H         1 UNK         0.3459 
    133 H133       31.1959    3.6192   -3.7840 H         1 UNK         0.3459 
    134 H134       34.0622   -0.0502   -4.3013 H         1 UNK         0.0612 
    135 H135       34.0599   -0.4053   -6.0059 H         1 UNK         0.0612 
    136 H136       33.2216   -2.8029   -5.4884 H         1 UNK         0.0624 
    137 H137       33.0847   -2.5073   -3.7681 H         1 UNK         0.0624 
@<TRIPOS>BOND
     1    1    2 1    
     2    1   72 1    
     3    1   73 1    
     4    1   74 1    
     5    2    3 2    
     6    2    4 am   BACKBONE|DICT|INTERRES
     7    4    5 1    
     8    4   75 1    
     9    5    6 1    
    10    5   35 1    
    11    5   76 1    
    12    6    7 1    
    13    6   77 1    
    14    6   78 1    
    15    7    8 1    
    16    8    9 1    
    17    8   79 1    
    18    8   80 1    
    19    9   10 ar   
    20    9   14 ar   
    21   10   11 ar   
    22   10   81 1    
    23   11   12 ar   
    24   11   71 1    
    25   12   13 ar   
    26   12   82 1    
    27   13   14 ar   
    28   13   15 1    
    29   14   83 1    
    30   15   16 1    
    31   15   84 1    
    32   15   85 1    
    33   16   17 1    
    34   17   18 1    
    35   17   86 1    
    36   17   87 1    
    37   18   19 1    
    38   18   37 1    
    39   18   88 1    
    40   19   20 am   BACKBONE|DICT|INTERRES
    41   19   89 1    
    42   20   21 2    
    43   20   22 1    
    44   22   23 1    
    45   22   24 1    
    46   22   90 1    
    47   23   91 1    
    48   23   92 1    
    49   23   93 1    
    50   24   25 am   BACKBONE|DICT|INTERRES
    51   24   94 1    
    52   25   26 2    
    53   25   27 1    
    54   27   28 1    
    55   27   29 1    
    56   27   95 1    
    57   28   96 1    
    58   28   97 1    
    59   28   98 1    
    60   29   30 am   BACKBONE|DICT|INTERRES
    61   29   99 1    
    62   30   31 2    
    63   30   32 1    
    64   32   33 1    
    65   32   34 1    
    66   32  100 1    
    67   33  101 1    
    68   33  102 1    
    69   33  103 1    
    70   34   35 am   BACKBONE|DICT|INTERRES
    71   34  104 1    
    72   35   36 2    
    73   37   38 2    
    74   37   39 am   BACKBONE|DICT|INTERRES
    75   39   40 1    
    76   39  105 1    
    77   40   41 1    
    78   40   42 1    
    79   40  106 1    
    80   41  107 1    
    81   41  108 1    
    82   41  109 1    
    83   42   43 2    
    84   42   44 am   BACKBONE|DICT|INTERRES
    85   44   45 1    
    86   44  110 1    
    87   45   46 1    
    88   45   47 1    
    89   45  111 1    
    90   46  112 1    
    91   46  113 1    
    92   46  114 1    
    93   47   48 2    
    94   47   49 am   BACKBONE|DICT|INTERRES
    95   49   50 1    
    96   49  115 1    
    97   50   51 1    
    98   50   52 1    
    99   50  116 1    
   100   51  117 1    
   101   51  118 1    
   102   51  119 1    
   103   52   53 2    
   104   52   54 am   BACKBONE|DICT|INTERRES
   105   54   55 1    
   106   54  120 1    
   107   55   56 1    
   108   55   57 1    
   109   55  121 1    
   110   56  122 1    
   111   56  123 1    
   112   56  124 1    
   113   57   58 2    
   114   57   59 am   BACKBONE|DICT|INTERRES
   115   59   60 1    
   116   59  125 1    
   117   60   61 1    
   118   60   62 1    
   119   60  126 1    
   120   61  127 1    
   121   61  128 1    
   122   61  129 1    
   123   62   63 2    
   124   62   64 am   BACKBONE|DICT|INTERRES
   125   64   65 1    
   126   64  130 1    
   127   65   66 1    
   128   65   69 1    
   129   65  131 1    
   130   66   67 am   BACKBONE|DICT|INTERRES
   131   66   68 2    
   132   67  132 1    
   133   67  133 1    
   134   69   70 1    
   135   69  134 1    
   136   69  135 1    
   137   70   71 1    
   138   71  136 1    
   139   71  137 1    
@<TRIPOS>SUBSTRUCTURE
     1 UNK         1 GROUP             0       ****    0 ROOT    
