@<TRIPOS>MOLECULE
3R137
137   139    1
SMALL
USER_CHARGES


@<TRIPOS>ATOM
      1 CA         26.0505   -2.8903   -0.2191 C.3       0 UNK        -0.2020 
      2 C          26.0825   -4.3858   -0.5254 C.2       0 UNK         0.4855 
      3 O          25.8164   -5.1870    0.3676 O.2       0 UNK        -0.5197 
      4 N          26.4052   -4.8191   -1.7524 N.am      1 UNK        -0.4892 
      5 CA         26.7218   -3.9998   -2.9325 C.3       1 UNK         0.0835 
      6 C6         27.6304   -4.7504   -3.9418 C.3       12 UNK        -0.0855 
      7 S7         29.0964   -5.5267   -3.1697 S.3       12 UNK        -0.2931 
      8 C8         30.4914   -4.7150   -4.0280 C.3       12 UNK         0.0378 
      9 C9         30.8853   -3.3231   -3.5259 C.ar      12 UNK        -0.0802 
     10 C10        31.9896   -2.7024   -4.1183 C.ar      12 UNK        -0.0944 
     11 C11        32.4153   -1.4381   -3.7016 C.ar      12 UNK        -0.0787 
     12 C12        31.7064   -0.7711   -2.6995 C.ar      12 UNK        -0.0862 
     13 C13        30.5921   -1.3698   -2.1027 C.ar      12 UNK        -0.0733 
     14 C14        30.2067   -2.6531   -2.4990 C.ar      12 UNK        -0.0832 
     15 C15        29.7958   -0.6297   -1.0345 C.3       12 UNK         0.0240 
     16 S16        28.1436   -0.1251   -1.6287 S.3       12 UNK        -0.2522 
     17 C17        28.5656    0.8532   -3.1086 C.3       12 UNK        -0.0967 
     18 CA         28.2028    0.0730   -4.4045 C.3       5 UNK         0.0660 
     19 N          26.7578    0.0512   -4.6640 N.am      5 UNK        -0.4015 
     20 C          26.0060    1.0774   -5.0974 C.2       4 UNK         0.4946 
     21 O          26.4449    2.2037   -5.3378 O.2       4 UNK        -0.5353 
     22 CA         24.5111    0.8078   -5.2996 C.3       4 UNK         0.0277 
     23 CB         24.2729    0.0474   -6.6146 C.3       4 UNK        -0.1981 
     24 N          23.9687    0.0173   -4.1984 N.am      4 UNK        -0.4209 
     25 C          23.1185    0.4537   -3.2597 C.2       3 UNK         0.4942 
     26 O          22.7269    1.6197   -3.1851 O.2       3 UNK        -0.5208 
     27 CA         22.6216   -0.5813   -2.2221 C.3       3 UNK         0.0250 
     28 CB         21.1476   -0.3534   -1.8242 C.3       3 UNK        -0.1990 
     29 N          22.8491   -1.9801   -2.6190 N.am      3 UNK        -0.4232 
     30 C          22.3703   -2.6152   -3.7018 C.2       2 UNK         0.4993 
     31 O          21.5199   -2.1394   -4.4549 O.2       2 UNK        -0.5286 
     32 CA         22.9882   -3.9924   -4.0257 C.3       2 UNK         0.0209 
     33 CB         23.0305   -4.2605   -5.5461 C.3       2 UNK        -0.1931 
     34 N          24.3221   -4.2171   -3.4402 N.am      2 UNK        -0.4546 
     35 C          25.4443   -3.5033   -3.6393 C.2       1 UNK         0.5154 
     36 O          25.4916   -2.4684   -4.3067 O.2       1 UNK        -0.5181 
     37 C          28.9588    0.5384   -5.6644 C.2       5 UNK         0.5014 
     38 O          28.9355   -0.1784   -6.6667 O.2       5 UNK        -0.5248 
     39 N          29.5546    1.7386   -5.6258 N.am      6 UNK        -0.4434 
     40 CA         30.2728    2.3736   -6.7325 C.3       6 UNK         0.0363 
     41 CB         30.8243    3.7287   -6.2651 C.3       6 UNK        -0.1936 
     42 C          29.4489    2.5429   -8.0185 C.2       6 UNK         0.5081 
     43 O          30.0281    2.4850   -9.1017 O.2       6 UNK        -0.5248 
     44 N          28.1235    2.7006   -7.8943 N.am      7 UNK        -0.4718 
     45 CA         27.2068    2.7914   -9.0343 C.3       7 UNK         0.0273 
     46 CB         25.8653    3.3783   -8.5659 C.3       7 UNK        -0.1935 
     47 C          27.0017    1.4552   -9.7763 C.2       7 UNK         0.5018 
     48 O          26.5439    1.4822  -10.9193 O.2       7 UNK        -0.5186 
     49 N          27.3382    0.3259   -9.1356 N.am      8 UNK        -0.4240 
     50 CA         27.2725   -1.0147   -9.7212 C.3       8 UNK         0.0235 
     51 CB         26.5011   -1.9539   -8.7778 C.3       8 UNK        -0.2000 
     52 C          28.6748   -1.5706  -10.0044 C.2       8 UNK         0.4941 
     53 O          28.9120   -2.0837  -11.0981 O.2       8 UNK        -0.5273 
     54 N          29.5740   -1.4753   -9.0162 N.am      9 UNK        -0.4262 
     55 CA         30.9153   -2.0615   -9.0498 C.3       9 UNK         0.0264 
     56 CB         31.3773   -2.3092   -7.6042 C.3       9 UNK        -0.1955 
     57 C          31.9543   -1.2217   -9.8130 C.2       9 UNK         0.5031 
     58 O          33.0271   -1.7480  -10.1112 O.2       9 UNK        -0.5390 
     59 N          31.6473    0.0560  -10.0914 N.am      10 UNK        -0.4204 
     60 CA         32.5047    1.0509  -10.7569 C.3       10 UNK         0.0237 
     61 CB         32.8368    0.6261  -12.2041 C.3       10 UNK        -0.1985 
     62 C          33.7612    1.4422   -9.9485 C.2       10 UNK         0.4970 
     63 O          34.7055    1.9883  -10.5211 O.2       10 UNK        -0.4914 
     64 N          33.7477    1.1803   -8.6354 N.am      11 UNK        -0.4285 
     65 CA         34.8210    1.4999   -7.6812 C.3       11 UNK         0.1007 
     66 C          34.8960    2.9921   -7.2394 C.2       11 UNK         0.5703 
     67 N          34.0221    3.8737   -7.7098 N.am      11 UNK        -0.7361 
     68 O          35.7806    3.3628   -6.4711 O.2       11 UNK        -0.4986 
     69 C69        34.8211    0.5136   -6.4813 C.3       12 UNK        -0.0947 
     70 S70        33.2283    0.4052   -5.5979 S.3       12 UNK        -0.2240 
     71 C71        33.6559   -0.8101   -4.3185 C.3       12 UNK         0.0194 
     72 H72        25.6028   -2.3043   -1.0191 H         1 UNK         0.0906 
     73 H73        25.4707   -2.7018    0.6844 H         1 UNK         0.0906 
     74 H74        27.0621   -2.5249   -0.0450 H         1 UNK         0.0906 
     75 H75        26.4734   -5.8168   -1.9002 H         1 UNK         0.3140 
     76 H76        27.2548   -3.1056   -2.6093 H         1 UNK         0.1085 
     77 H77        27.0727   -5.5445   -4.4430 H         1 UNK         0.0836 
     78 H78        27.9544   -4.0686   -4.7312 H         1 UNK         0.0836 
     79 H79        31.3595   -5.3679   -3.9265 H         1 UNK         0.0731 
     80 H80        30.2734   -4.6658   -5.0959 H         1 UNK         0.0731 
     81 H81        32.5328   -3.2148   -4.9008 H         1 UNK         0.1312 
     82 H82        32.0248    0.2143   -2.3875 H         1 UNK         0.1406 
     83 H83        29.3701   -3.1141   -1.9991 H         1 UNK         0.1631 
     84 H84        30.3354    0.2547   -0.6920 H         1 UNK         0.0717 
     85 H85        29.6772   -1.2722   -0.1610 H         1 UNK         0.0717 
     86 H86        28.0376    1.8071   -3.0595 H         1 UNK         0.0934 
     87 H87        29.6278    1.0958   -3.0630 H         1 UNK         0.0934 
     88 H88        28.5047   -0.9672   -4.2721 H         1 UNK         0.0739 
     89 H89        26.3120   -0.8552   -4.5458 H         1 UNK         0.3093 
     90 H90        24.0044    1.7731   -5.3650 H         1 UNK         0.0818 
     91 H91        23.2073   -0.0460   -6.8251 H         1 UNK         0.0819 
     92 H92        24.7278    0.5576   -7.4633 H         1 UNK         0.0819 
     93 H93        24.6895   -0.9594   -6.5757 H         1 UNK         0.0819 
     94 H94        24.2611   -0.9538   -4.1660 H         1 UNK         0.3041 
     95 H95        23.2299   -0.4197   -1.3309 H         1 UNK         0.0784 
     96 H96        21.0085    0.6346   -1.3836 H         1 UNK         0.0793 
     97 H97        20.4804   -0.4204   -2.6840 H         1 UNK         0.0793 
     98 H98        20.8181   -1.0840   -1.0856 H         1 UNK         0.0793 
     99 H99        23.5201   -2.4842   -2.0586 H         1 UNK         0.3024 
    100 H100       22.3212   -4.7304   -3.5763 H         1 UNK         0.1171 
    101 H101       23.4547   -5.2404   -5.7651 H         1 UNK         0.0786 
    102 H102       23.6252   -3.5126   -6.0723 H         1 UNK         0.0786 
    103 H103       22.0292   -4.2415   -5.9784 H         1 UNK         0.0786 
    104 H104       24.3986   -5.0256   -2.8372 H         1 UNK         0.2977 
    105 H105       29.4702    2.2845   -4.7814 H         1 UNK         0.3127 
    106 H106       31.1140    1.7301   -6.9892 H         1 UNK         0.0770 
    107 H107       30.0336    4.3782   -5.8876 H         1 UNK         0.0814 
    108 H108       31.3115    4.2591   -7.0838 H         1 UNK         0.0814 
    109 H109       31.5663    3.6030   -5.4762 H         1 UNK         0.0814 
    110 H110       27.7089    2.7013   -6.9672 H         1 UNK         0.2983 
    111 H111       27.6383    3.4869   -9.7579 H         1 UNK         0.0947 
    112 H112       25.1642    3.4668   -9.3970 H         1 UNK         0.0806 
    113 H113       25.9963    4.3762   -8.1474 H         1 UNK         0.0806 
    114 H114       25.3924    2.7596   -7.8050 H         1 UNK         0.0806 
    115 H115       27.7465    0.3967   -8.2098 H         1 UNK         0.3000 
    116 H116       26.7373   -0.9915  -10.6730 H         1 UNK         0.0850 
    117 H117       26.5336   -2.9840   -9.1356 H         1 UNK         0.0810 
    118 H118       25.4507   -1.6708   -8.7223 H         1 UNK         0.0810 
    119 H119       26.9087   -1.9455   -7.7658 H         1 UNK         0.0810 
    120 H120       29.2991   -1.0377   -8.1360 H         1 UNK         0.3040 
    121 H121       30.8582   -3.0294   -9.5525 H         1 UNK         0.0766 
    122 H122       32.3794   -2.7393   -7.5753 H         1 UNK         0.0812 
    123 H123       30.7118   -3.0028   -7.0905 H         1 UNK         0.0812 
    124 H124       31.4007   -1.3860   -7.0260 H         1 UNK         0.0812 
    125 H125       30.7475    0.4072   -9.7869 H         1 UNK         0.3205 
    126 H126       31.9088    1.9613  -10.8253 H         1 UNK         0.0754 
    127 H127       33.3199    1.4378  -12.7494 H         1 UNK         0.0769 
    128 H128       31.9350    0.3603  -12.7558 H         1 UNK         0.0769 
    129 H129       33.5129   -0.2287  -12.2330 H         1 UNK         0.0769 
    130 H130       32.9352    0.7346   -8.2390 H         1 UNK         0.2981 
    131 H131       35.7632    1.3313   -8.2058 H         1 UNK         0.0541 
    132 H132       33.3126    3.5903   -8.3644 H         1 UNK         0.3459 
    133 H133       34.0948    4.8370   -7.4241 H         1 UNK         0.3459 
    134 H134       35.6078    0.7642   -5.7672 H         1 UNK         0.0612 
    135 H135       35.0633   -0.4857   -6.8467 H         1 UNK         0.0612 
    136 H136       34.2886   -1.5865   -4.7518 H         1 UNK         0.0624 
    137 H137       34.2526   -0.3228   -3.5461 H         1 UNK         0.0624 
@<TRIPOS>BOND
     1    1    2 1    
     2    1   72 1    
     3    1   73 1    
     4    1   74 1    
     5    2    3 2    
     6    2    4 am   BACKBONE|DICT|INTERRES
     7    4    5 1    
     8    4   75 1    
     9    5    6 1    
    10    5   35 1    
    11    5   76 1    
    12    6    7 1    
    13    6   77 1    
    14    6   78 1    
    15    7    8 1    
    16    8    9 1    
    17    8   79 1    
    18    8   80 1    
    19    9   10 ar   
    20    9   14 ar   
    21   10   11 ar   
    22   10   81 1    
    23   11   12 ar   
    24   11   71 1    
    25   12   13 ar   
    26   12   82 1    
    27   13   14 ar   
    28   13   15 1    
    29   14   83 1    
    30   15   16 1    
    31   15   84 1    
    32   15   85 1    
    33   16   17 1    
    34   17   18 1    
    35   17   86 1    
    36   17   87 1    
    37   18   19 1    
    38   18   37 1    
    39   18   88 1    
    40   19   20 am   BACKBONE|DICT|INTERRES
    41   19   89 1    
    42   20   21 2    
    43   20   22 1    
    44   22   23 1    
    45   22   24 1    
    46   22   90 1    
    47   23   91 1    
    48   23   92 1    
    49   23   93 1    
    50   24   25 am   BACKBONE|DICT|INTERRES
    51   24   94 1    
    52   25   26 2    
    53   25   27 1    
    54   27   28 1    
    55   27   29 1    
    56   27   95 1    
    57   28   96 1    
    58   28   97 1    
    59   28   98 1    
    60   29   30 am   BACKBONE|DICT|INTERRES
    61   29   99 1    
    62   30   31 2    
    63   30   32 1    
    64   32   33 1    
    65   32   34 1    
    66   32  100 1    
    67   33  101 1    
    68   33  102 1    
    69   33  103 1    
    70   34   35 am   BACKBONE|DICT|INTERRES
    71   34  104 1    
    72   35   36 2    
    73   37   38 2    
    74   37   39 am   BACKBONE|DICT|INTERRES
    75   39   40 1    
    76   39  105 1    
    77   40   41 1    
    78   40   42 1    
    79   40  106 1    
    80   41  107 1    
    81   41  108 1    
    82   41  109 1    
    83   42   43 2    
    84   42   44 am   BACKBONE|DICT|INTERRES
    85   44   45 1    
    86   44  110 1    
    87   45   46 1    
    88   45   47 1    
    89   45  111 1    
    90   46  112 1    
    91   46  113 1    
    92   46  114 1    
    93   47   48 2    
    94   47   49 am   BACKBONE|DICT|INTERRES
    95   49   50 1    
    96   49  115 1    
    97   50   51 1    
    98   50   52 1    
    99   50  116 1    
   100   51  117 1    
   101   51  118 1    
   102   51  119 1    
   103   52   53 2    
   104   52   54 am   BACKBONE|DICT|INTERRES
   105   54   55 1    
   106   54  120 1    
   107   55   56 1    
   108   55   57 1    
   109   55  121 1    
   110   56  122 1    
   111   56  123 1    
   112   56  124 1    
   113   57   58 2    
   114   57   59 am   BACKBONE|DICT|INTERRES
   115   59   60 1    
   116   59  125 1    
   117   60   61 1    
   118   60   62 1    
   119   60  126 1    
   120   61  127 1    
   121   61  128 1    
   122   61  129 1    
   123   62   63 2    
   124   62   64 am   BACKBONE|DICT|INTERRES
   125   64   65 1    
   126   64  130 1    
   127   65   66 1    
   128   65   69 1    
   129   65  131 1    
   130   66   67 am   BACKBONE|DICT|INTERRES
   131   66   68 2    
   132   67  132 1    
   133   67  133 1    
   134   69   70 1    
   135   69  134 1    
   136   69  135 1    
   137   70   71 1    
   138   71  136 1    
   139   71  137 1    
@<TRIPOS>SUBSTRUCTURE
     1 UNK         1 GROUP             0       ****    0 ROOT    
