@<TRIPOS>MOLECULE
3R137
137   139    1
SMALL
USER_CHARGES


@<TRIPOS>ATOM
      1 CA         30.2186   -5.4815   -1.4893 C.3       0 UNK        -0.2020 
      2 C          29.0097   -4.9519   -0.7330 C.2       0 UNK         0.4855 
      3 O          28.1341   -5.7278   -0.3526 O.2       0 UNK        -0.5197 
      4 N          28.9484   -3.6320   -0.5211 N.am      1 UNK        -0.4892 
      5 CA         27.8957   -2.9214    0.2155 C.3       1 UNK         0.0835 
      6 C6         28.4390   -1.6541    0.9367 C.3       12 UNK        -0.0855 
      7 S7         29.6388   -0.5631    0.0782 S.3       12 UNK        -0.2931 
      8 C8         29.1509   -0.4718   -1.6787 C.3       12 UNK         0.0378 
      9 C9         30.0455   -1.3216   -2.5746 C.ar      12 UNK        -0.0802 
     10 C10        31.4274   -1.1029   -2.5938 C.ar      12 UNK        -0.0944 
     11 C11        32.2597   -1.8594   -3.4241 C.ar      12 UNK        -0.0787 
     12 C12        31.6983   -2.8454   -4.2386 C.ar      12 UNK        -0.0862 
     13 C13        30.3222   -3.0850   -4.2235 C.ar      12 UNK        -0.0733 
     14 C14        29.4982   -2.3094   -3.3997 C.ar      12 UNK        -0.0832 
     15 C15        29.7521   -4.2167   -5.0670 C.3       12 UNK         0.0240 
     16 S16        29.2608   -3.6592   -6.7264 S.3       12 UNK        -0.2522 
     17 C17        27.5590   -3.1157   -6.3994 C.3       12 UNK        -0.0967 
     18 CA         27.0437   -1.9683   -7.2962 C.3       5 UNK         0.0660 
     19 N          25.6008   -1.8178   -7.1021 N.am      5 UNK        -0.4015 
     20 C          24.7749   -1.0808   -7.8533 C.2       4 UNK         0.4946 
     21 O          25.1235   -0.4574   -8.8540 O.2       4 UNK        -0.5353 
     22 CA         23.3152   -1.0021   -7.3742 C.3       4 UNK         0.0277 
     23 CB         22.5077   -2.2010   -7.8968 C.3       4 UNK        -0.1981 
     24 N          23.2045   -0.9296   -5.9123 N.am      4 UNK        -0.4209 
     25 C          23.6232    0.1150   -5.1828 C.2       3 UNK         0.4942 
     26 O          24.1128    1.1317   -5.6697 O.2       3 UNK        -0.5208 
     27 CA         23.5136   -0.0014   -3.6549 C.3       3 UNK         0.0250 
     28 CB         22.1096    0.4072   -3.1816 C.3       3 UNK        -0.1990 
     29 N          23.8425   -1.3325   -3.1359 N.am      3 UNK        -0.4232 
     30 C          25.0477   -1.9115   -3.2259 C.2       2 UNK         0.4993 
     31 O          26.0024   -1.4247   -3.8373 O.2       2 UNK        -0.5286 
     32 CA         25.2007   -3.2844   -2.5498 C.3       2 UNK         0.0209 
     33 CB         25.2318   -4.4131   -3.5926 C.3       2 UNK        -0.1931 
     34 N          26.4030   -3.3621   -1.7159 N.am      2 UNK        -0.4546 
     35 C          26.5840   -2.6838   -0.5740 C.2       1 UNK         0.5154 
     36 O          25.7381   -1.9116   -0.1190 O.2       1 UNK        -0.5181 
     37 C          27.7775   -0.6310   -7.0536 C.2       5 UNK         0.5014 
     38 O          28.6276   -0.2428   -7.8603 O.2       5 UNK        -0.5248 
     39 N          27.3844    0.0748   -5.9811 N.am      6 UNK        -0.4434 
     40 CA         27.8369    1.4286   -5.6601 C.3       6 UNK         0.0363 
     41 CB         27.3058    1.8386   -4.2776 C.3       6 UNK        -0.1936 
     42 C          27.4267    2.4576   -6.7282 C.2       6 UNK         0.5081 
     43 O          28.2697    3.2448   -7.1553 O.2       6 UNK        -0.5248 
     44 N          26.1603    2.4164   -7.1696 N.am      7 UNK        -0.4718 
     45 CA         25.6090    3.2797   -8.2219 C.3       7 UNK         0.0273 
     46 CB         24.0883    3.0809   -8.3152 C.3       7 UNK        -0.1935 
     47 C          26.2673    3.0640   -9.5952 C.2       7 UNK         0.5018 
     48 O          26.4874    4.0359  -10.3186 O.2       7 UNK        -0.5186 
     49 N          26.6085    1.8069   -9.9113 N.am      8 UNK        -0.4240 
     50 CA         27.3955    1.4200  -11.0862 C.3       8 UNK         0.0235 
     51 CB         27.2518   -0.0954  -11.3076 C.3       8 UNK        -0.2000 
     52 C          28.8853    1.8060  -10.9894 C.2       8 UNK         0.4941 
     53 O          29.5879    1.7048  -11.9959 O.2       8 UNK        -0.5273 
     54 N          29.3417    2.2201   -9.7964 N.am      9 UNK        -0.4262 
     55 CA         30.7141    2.5858   -9.4345 C.3       9 UNK         0.0264 
     56 CB         31.1739    3.8464  -10.1972 C.3       9 UNK        -0.1955 
     57 C          31.7038    1.4136   -9.5566 C.2       9 UNK         0.5031 
     58 O          32.8868    1.6349   -9.8283 O.2       9 UNK        -0.5390 
     59 N          31.2315    0.1826   -9.3120 N.am      10 UNK        -0.4204 
     60 CA         32.0237   -1.0503   -9.3776 C.3       10 UNK         0.0237 
     61 CB         31.0861   -2.2256   -9.7022 C.3       10 UNK        -0.1985 
     62 C          32.8674   -1.2619   -8.1025 C.2       10 UNK         0.4970 
     63 O          32.8286   -2.3316   -7.4936 O.2       10 UNK        -0.4914 
     64 N          33.6108   -0.2172   -7.7292 N.am      11 UNK        -0.4285 
     65 CA         34.4434   -0.1067   -6.5267 C.3       11 UNK         0.1007 
     66 C          35.7609    0.6874   -6.7837 C.2       11 UNK         0.5703 
     67 N          36.0512    1.1292   -8.0039 N.am      11 UNK        -0.7361 
     68 O          36.5587    0.8881   -5.8720 O.2       11 UNK        -0.4986 
     69 C69        33.5966    0.4410   -5.3423 C.3       12 UNK        -0.0947 
     70 S70        34.2723    0.0826   -3.6862 S.3       12 UNK        -0.2240 
     71 C71        33.7695   -1.6494   -3.4220 C.3       12 UNK         0.0194 
     72 H72        30.9240   -4.6884   -1.7378 H         1 UNK         0.0906 
     73 H73        29.9037   -5.9598   -2.4160 H         1 UNK         0.0906 
     74 H74        30.7430   -6.2217   -0.8856 H         1 UNK         0.0906 
     75 H75        29.6887   -3.0359   -0.8696 H         1 UNK         0.3140 
     76 H76        27.5742   -3.5922    1.0161 H         1 UNK         0.1085 
     77 H77        28.9546   -1.9874    1.8389 H         1 UNK         0.0836 
     78 H78        27.6274   -1.0295    1.3141 H         1 UNK         0.0836 
     79 H79        28.0965   -0.7134   -1.8065 H         1 UNK         0.0731 
     80 H80        29.2573    0.5665   -1.9945 H         1 UNK         0.0731 
     81 H81        31.8575   -0.3410   -1.9580 H         1 UNK         0.1312 
     82 H82        32.3351   -3.4390   -4.8808 H         1 UNK         0.1406 
     83 H83        28.4322   -2.4797   -3.3864 H         1 UNK         0.1631 
     84 H84        28.9050   -4.6826   -4.5611 H         1 UNK         0.0717 
     85 H85        30.5001   -5.0034   -5.1773 H         1 UNK         0.0717 
     86 H86        26.9259   -3.9951   -6.5298 H         1 UNK         0.0934 
     87 H87        27.4681   -2.8355   -5.3535 H         1 UNK         0.0934 
     88 H88        27.2056   -2.2473   -8.3396 H         1 UNK         0.0739 
     89 H89        25.2172   -2.2554   -6.2787 H         1 UNK         0.3093 
     90 H90        22.8796   -0.0916   -7.7910 H         1 UNK         0.0818 
     91 H91        22.5643   -2.2628   -8.9847 H         1 UNK         0.0819 
     92 H92        22.8761   -3.1467   -7.4974 H         1 UNK         0.0819 
     93 H93        21.4532   -2.1132   -7.6346 H         1 UNK         0.0819 
     94 H94        22.7944   -1.7200   -5.4363 H         1 UNK         0.3041 
     95 H95        24.2317    0.7008   -3.2257 H         1 UNK         0.0784 
     96 H96        21.8522    1.4046   -3.5414 H         1 UNK         0.0793 
     97 H97        21.3425   -0.2780   -3.5445 H         1 UNK         0.0793 
     98 H98        22.0498    0.4334   -2.0933 H         1 UNK         0.0793 
     99 H99        23.1127   -1.8046   -2.6213 H         1 UNK         0.3024 
    100 H100       24.3378   -3.4491   -1.9002 H         1 UNK         0.1171 
    101 H101       24.3788   -4.3511   -4.2697 H         1 UNK         0.0786 
    102 H102       26.1364   -4.3839   -4.1976 H         1 UNK         0.0786 
    103 H103       25.1894   -5.3910   -3.1124 H         1 UNK         0.0786 
    104 H104       27.1240   -4.0077   -2.0005 H         1 UNK         0.2977 
    105 H105       26.7198   -0.3460   -5.3377 H         1 UNK         0.3127 
    106 H106       28.9279    1.4048   -5.6142 H         1 UNK         0.0770 
    107 H107       26.2239    1.9698   -4.2788 H         1 UNK         0.0814 
    108 H108       27.7472    2.7828   -3.9568 H         1 UNK         0.0814 
    109 H109       27.5433    1.0913   -3.5230 H         1 UNK         0.0814 
    110 H110       25.5060    1.7811   -6.7162 H         1 UNK         0.2983 
    111 H111       25.7991    4.3146   -7.9290 H         1 UNK         0.0947 
    112 H112       23.8326    2.0560   -8.5845 H         1 UNK         0.0806 
    113 H113       23.6537    3.7359   -9.0715 H         1 UNK         0.0806 
    114 H114       23.5993    3.3102   -7.3682 H         1 UNK         0.0806 
    115 H115       26.3066    1.0531   -9.2993 H         1 UNK         0.3000 
    116 H116       26.9839    1.9346  -11.9570 H         1 UNK         0.0850 
    117 H117       27.7983   -0.4175  -12.1950 H         1 UNK         0.0810 
    118 H118       26.2087   -0.3781  -11.4501 H         1 UNK         0.0810 
    119 H119       27.6396   -0.6634  -10.4611 H         1 UNK         0.0810 
    120 H120       28.6796    2.2672   -9.0303 H         1 UNK         0.3040 
    121 H121       30.6862    2.8387   -8.3739 H         1 UNK         0.0766 
    122 H122       31.2991    3.6528  -11.2629 H         1 UNK         0.0812 
    123 H123       32.1320    4.2047   -9.8187 H         1 UNK         0.0812 
    124 H124       30.4576    4.6602  -10.0847 H         1 UNK         0.0812 
    125 H125       30.2710    0.0859   -8.9904 H         1 UNK         0.3205 
    126 H126       32.7318   -0.9685  -10.2049 H         1 UNK         0.0754 
    127 H127       31.6225   -3.1753   -9.7137 H         1 UNK         0.0769 
    128 H128       30.6263   -2.1013  -10.6828 H         1 UNK         0.0769 
    129 H129       30.2838   -2.3052   -8.9715 H         1 UNK         0.0769 
    130 H130       33.5694    0.6107   -8.3155 H         1 UNK         0.2981 
    131 H131       34.7752   -1.1143   -6.2721 H         1 UNK         0.0541 
    132 H132       36.9142    1.6308   -8.1440 H         1 UNK         0.3459 
    133 H133       35.4421    0.9580   -8.7877 H         1 UNK         0.3459 
    134 H134       32.5860    0.0313   -5.3787 H         1 UNK         0.0612 
    135 H135       33.4715    1.5210   -5.4355 H         1 UNK         0.0612 
    136 H136       34.2488   -2.2700   -4.1803 H         1 UNK         0.0624 
    137 H137       34.1641   -1.9814   -2.4611 H         1 UNK         0.0624 
@<TRIPOS>BOND
     1    1    2 1    
     2    1   72 1    
     3    1   73 1    
     4    1   74 1    
     5    2    3 2    
     6    2    4 am   BACKBONE|DICT|INTERRES
     7    4    5 1    
     8    4   75 1    
     9    5    6 1    
    10    5   35 1    
    11    5   76 1    
    12    6    7 1    
    13    6   77 1    
    14    6   78 1    
    15    7    8 1    
    16    8    9 1    
    17    8   79 1    
    18    8   80 1    
    19    9   10 ar   
    20    9   14 ar   
    21   10   11 ar   
    22   10   81 1    
    23   11   12 ar   
    24   11   71 1    
    25   12   13 ar   
    26   12   82 1    
    27   13   14 ar   
    28   13   15 1    
    29   14   83 1    
    30   15   16 1    
    31   15   84 1    
    32   15   85 1    
    33   16   17 1    
    34   17   18 1    
    35   17   86 1    
    36   17   87 1    
    37   18   19 1    
    38   18   37 1    
    39   18   88 1    
    40   19   20 am   BACKBONE|DICT|INTERRES
    41   19   89 1    
    42   20   21 2    
    43   20   22 1    
    44   22   23 1    
    45   22   24 1    
    46   22   90 1    
    47   23   91 1    
    48   23   92 1    
    49   23   93 1    
    50   24   25 am   BACKBONE|DICT|INTERRES
    51   24   94 1    
    52   25   26 2    
    53   25   27 1    
    54   27   28 1    
    55   27   29 1    
    56   27   95 1    
    57   28   96 1    
    58   28   97 1    
    59   28   98 1    
    60   29   30 am   BACKBONE|DICT|INTERRES
    61   29   99 1    
    62   30   31 2    
    63   30   32 1    
    64   32   33 1    
    65   32   34 1    
    66   32  100 1    
    67   33  101 1    
    68   33  102 1    
    69   33  103 1    
    70   34   35 am   BACKBONE|DICT|INTERRES
    71   34  104 1    
    72   35   36 2    
    73   37   38 2    
    74   37   39 am   BACKBONE|DICT|INTERRES
    75   39   40 1    
    76   39  105 1    
    77   40   41 1    
    78   40   42 1    
    79   40  106 1    
    80   41  107 1    
    81   41  108 1    
    82   41  109 1    
    83   42   43 2    
    84   42   44 am   BACKBONE|DICT|INTERRES
    85   44   45 1    
    86   44  110 1    
    87   45   46 1    
    88   45   47 1    
    89   45  111 1    
    90   46  112 1    
    91   46  113 1    
    92   46  114 1    
    93   47   48 2    
    94   47   49 am   BACKBONE|DICT|INTERRES
    95   49   50 1    
    96   49  115 1    
    97   50   51 1    
    98   50   52 1    
    99   50  116 1    
   100   51  117 1    
   101   51  118 1    
   102   51  119 1    
   103   52   53 2    
   104   52   54 am   BACKBONE|DICT|INTERRES
   105   54   55 1    
   106   54  120 1    
   107   55   56 1    
   108   55   57 1    
   109   55  121 1    
   110   56  122 1    
   111   56  123 1    
   112   56  124 1    
   113   57   58 2    
   114   57   59 am   BACKBONE|DICT|INTERRES
   115   59   60 1    
   116   59  125 1    
   117   60   61 1    
   118   60   62 1    
   119   60  126 1    
   120   61  127 1    
   121   61  128 1    
   122   61  129 1    
   123   62   63 2    
   124   62   64 am   BACKBONE|DICT|INTERRES
   125   64   65 1    
   126   64  130 1    
   127   65   66 1    
   128   65   69 1    
   129   65  131 1    
   130   66   67 am   BACKBONE|DICT|INTERRES
   131   66   68 2    
   132   67  132 1    
   133   67  133 1    
   134   69   70 1    
   135   69  134 1    
   136   69  135 1    
   137   70   71 1    
   138   71  136 1    
   139   71  137 1    
@<TRIPOS>SUBSTRUCTURE
     1 UNK         1 GROUP             0       ****    0 ROOT    
