@<TRIPOS>MOLECULE
3R137
137   139    1
SMALL
USER_CHARGES


@<TRIPOS>ATOM
      1 CA         28.2580   -5.3444    1.9951 C.3       0 UNK        -0.2020 
      2 C          27.8623   -3.9267    1.6096 C.2       0 UNK         0.4855 
      3 O          26.9911   -3.3404    2.2519 O.2       0 UNK        -0.5197 
      4 N          28.5024   -3.3719    0.5717 N.am      1 UNK        -0.4892 
      5 CA         28.2279   -2.0384    0.0242 C.3       1 UNK         0.0835 
      6 C6         29.3679   -1.5957   -0.9252 C.3       12 UNK        -0.0855 
      7 S7         29.1818    0.0944   -1.5926 S.3       12 UNK        -0.2931 
      8 C8         30.7682    0.3289   -2.4604 C.3       12 UNK         0.0378 
      9 C9         31.1395   -0.8580   -3.3409 C.ar      12 UNK        -0.0802 
     10 C10        32.2745   -1.6192   -3.0488 C.ar      12 UNK        -0.0944 
     11 C11        32.6148   -2.7199   -3.8400 C.ar      12 UNK        -0.0787 
     12 C12        31.8093   -3.0627   -4.9295 C.ar      12 UNK        -0.0862 
     13 C13        30.6744   -2.3064   -5.2335 C.ar      12 UNK        -0.0733 
     14 C14        30.3448   -1.2064   -4.4364 C.ar      12 UNK        -0.0832 
     15 C15        29.8248   -2.6462   -6.4458 C.3       12 UNK         0.0240 
     16 S16        28.1879   -3.2897   -5.9769 S.3       12 UNK        -0.2522 
     17 C17        27.3821   -3.3159   -7.6154 C.3       12 UNK        -0.0967 
     18 CA         26.4617   -2.1127   -7.9576 C.3       5 UNK         0.0660 
     19 N          25.1737   -2.1304   -7.2600 N.am      5 UNK        -0.4015 
     20 C          24.0292   -1.7257   -7.8356 C.2       4 UNK         0.4946 
     21 O          23.9381   -1.3819   -9.0151 O.2       4 UNK        -0.5353 
     22 CA         22.7645   -1.6778   -6.9617 C.3       4 UNK         0.0277 
     23 CB         22.0811   -3.0545   -6.9262 C.3       4 UNK        -0.1981 
     24 N          23.0059   -1.2179   -5.5949 N.am      4 UNK        -0.4209 
     25 C          23.5091   -0.0224   -5.2538 C.2       3 UNK         0.4942 
     26 O          23.8218    0.8522   -6.0606 O.2       3 UNK        -0.5208 
     27 CA         23.7434    0.2177   -3.7526 C.3       3 UNK         0.0250 
     28 CB         22.5003    0.8531   -3.1101 C.3       3 UNK        -0.1990 
     29 N          24.1148   -0.9928   -3.0112 N.am      3 UNK        -0.4232 
     30 C          25.1762   -1.7651   -3.2834 C.2       2 UNK         0.4993 
     31 O          25.9537   -1.5573   -4.2188 O.2       2 UNK        -0.5286 
     32 CA         25.3745   -2.9969   -2.3840 C.3       2 UNK         0.0209 
     33 CB         25.3916   -4.2890   -3.2179 C.3       2 UNK        -0.1931 
     34 N          26.6103   -2.9024   -1.6078 N.am      2 UNK        -0.4546 
     35 C          26.8393   -1.9921   -0.6496 C.2       1 UNK         0.5154 
     36 O          26.0007   -1.1719   -0.2699 O.2       1 UNK        -0.5181 
     37 C          27.1406   -0.7388   -7.8093 C.2       5 UNK         0.5014 
     38 O          27.6890   -0.2421   -8.7929 O.2       5 UNK        -0.5248 
     39 N          27.0681   -0.1279   -6.6134 N.am      6 UNK        -0.4434 
     40 CA         27.6791    1.1714   -6.3019 C.3       6 UNK         0.0363 
     41 CB         27.4325    1.5227   -4.8266 C.3       6 UNK        -0.1936 
     42 C          27.1910    2.3187   -7.2040 C.2       6 UNK         0.5081 
     43 O          27.9847    3.1944   -7.5479 O.2       6 UNK        -0.5248 
     44 N          25.9089    2.2758   -7.5953 N.am      7 UNK        -0.4718 
     45 CA         25.2913    3.2005   -8.5488 C.3       7 UNK         0.0273 
     46 CB         23.7700    2.9809   -8.5512 C.3       7 UNK        -0.1935 
     47 C          25.8490    3.0886   -9.9804 C.2       7 UNK         0.5018 
     48 O          25.7688    4.0681  -10.7232 O.2       7 UNK        -0.5186 
     49 N          26.3952    1.9196  -10.3466 N.am      8 UNK        -0.4240 
     50 CA         27.0867    1.6990  -11.6155 C.3       8 UNK         0.0235 
     51 CB         26.9211    0.2374  -12.0695 C.3       8 UNK        -0.2000 
     52 C          28.5627    2.0952  -11.4766 C.2       8 UNK         0.4941 
     53 O          29.0081    3.0028  -12.1804 O.2       8 UNK        -0.5273 
     54 N          29.2783    1.4381  -10.5543 N.am      9 UNK        -0.4262 
     55 CA         30.6705    1.7094  -10.2001 C.3       9 UNK         0.0264 
     56 CB         31.6263    1.3987  -11.3719 C.3       9 UNK        -0.1955 
     57 C          31.0469    0.8570   -8.9847 C.2       9 UNK         0.5031 
     58 O          30.8179   -0.3540   -9.0030 O.2       9 UNK        -0.5390 
     59 N          31.6570    1.4881   -7.9747 N.am      10 UNK        -0.4204 
     60 CA         32.2515    0.8076   -6.8223 C.3       10 UNK         0.0237 
     61 CB         32.3937    1.8097   -5.6648 C.3       10 UNK        -0.1985 
     62 C          33.6119    0.1843   -7.1810 C.2       10 UNK         0.4970 
     63 O          34.2371    0.6024   -8.1592 O.2       10 UNK        -0.4914 
     64 N          34.0598   -0.7835   -6.3702 N.am      11 UNK        -0.4285 
     65 CA         35.3454   -1.4809   -6.5500 C.3       11 UNK         0.1007 
     66 C          36.6229   -0.6221   -6.2997 C.2       11 UNK         0.5703 
     67 N          36.5260    0.5610   -5.7040 N.am      11 UNK        -0.7361 
     68 O          37.7209   -1.0352   -6.6661 O.2       11 UNK        -0.4986 
     69 C69        35.3849   -2.8334   -5.7885 C.3       12 UNK        -0.0947 
     70 S70        35.3799   -2.6743   -3.9674 S.3       12 UNK        -0.2240 
     71 C71        33.8492   -3.5410   -3.5047 C.3       12 UNK         0.0194 
     72 H72        27.3961   -6.0071    1.9216 H         1 UNK         0.0906 
     73 H73        29.0445   -5.7393    1.3522 H         1 UNK         0.0906 
     74 H74        28.6182   -5.3669    3.0233 H         1 UNK         0.0906 
     75 H75        29.2141   -3.9063    0.0935 H         1 UNK         0.3140 
     76 H76        28.2015   -1.3369    0.8615 H         1 UNK         0.1085 
     77 H77        29.4490   -2.2929   -1.7612 H         1 UNK         0.0836 
     78 H78        30.3225   -1.6431   -0.3984 H         1 UNK         0.0836 
     79 H79        30.7041    1.2279   -3.0746 H         1 UNK         0.0731 
     80 H80        31.5466    0.5186   -1.7197 H         1 UNK         0.0731 
     81 H81        32.8959   -1.3602   -2.2022 H         1 UNK         0.1312 
     82 H82        32.0695   -3.9136   -5.5444 H         1 UNK         0.1406 
     83 H83        29.4621   -0.6283   -4.6663 H         1 UNK         0.1631 
     84 H84        30.3289   -3.3762   -7.0809 H         1 UNK         0.0717 
     85 H85        29.7063   -1.7466   -7.0487 H         1 UNK         0.0717 
     86 H86        28.1551   -3.4055   -8.3813 H         1 UNK         0.0934 
     87 H87        26.8082   -4.2409   -7.6881 H         1 UNK         0.0934 
     88 H88        26.2602   -2.2198   -9.0262 H         1 UNK         0.0739 
     89 H89        25.1931   -2.3489   -6.2722 H         1 UNK         0.3093 
     90 H90        22.0765   -0.9672   -7.4249 H         1 UNK         0.0818 
     91 H91        21.1293   -3.0125   -6.3962 H         1 UNK         0.0819 
     92 H92        21.8708   -3.4112   -7.9356 H         1 UNK         0.0819 
     93 H93        22.7051   -3.8051   -6.4391 H         1 UNK         0.0819 
     94 H94        22.7803   -1.8629   -4.8522 H         1 UNK         0.3041 
     95 H95        24.5698    0.9220   -3.6559 H         1 UNK         0.0784 
     96 H96        22.2175    1.7689   -3.6317 H         1 UNK         0.0793 
     97 H97        21.6406    0.1825   -3.1397 H         1 UNK         0.0793 
     98 H98        22.6838    1.1202   -2.0691 H         1 UNK         0.0793 
     99 H99        23.5414   -1.2215   -2.2117 H         1 UNK         0.3024 
    100 H100       24.5416   -3.0617   -1.6803 H         1 UNK         0.1171 
    101 H101       24.4806   -4.3853   -3.8101 H         1 UNK         0.0786 
    102 H102       25.4579   -5.1713   -2.5812 H         1 UNK         0.0786 
    103 H103       26.2336   -4.3126   -3.9105 H         1 UNK         0.0786 
    104 H104       27.3574   -3.5285   -1.8684 H         1 UNK         0.2977 
    105 H105       26.6233   -0.6175   -5.8406 H         1 UNK         0.3127 
    106 H106       28.7548    1.0619   -6.4563 H         1 UNK         0.0770 
    107 H107       26.3976    1.8164   -4.6557 H         1 UNK         0.0814 
    108 H108       28.0597    2.3601   -4.5188 H         1 UNK         0.0814 
    109 H109       27.6529    0.6883   -4.1622 H         1 UNK         0.0814 
    110 H110       25.3032    1.5618   -7.1992 H         1 UNK         0.2983 
    111 H111       25.4909    4.2172   -8.2034 H         1 UNK         0.0947 
    112 H112       23.2758    3.6564   -9.2509 H         1 UNK         0.0806 
    113 H113       23.3417    3.1668   -7.5661 H         1 UNK         0.0806 
    114 H114       23.5117    1.9611   -8.8407 H         1 UNK         0.0806 
    115 H115       26.4879    1.1875   -9.6512 H         1 UNK         0.3000 
    116 H116       26.6401    2.3315  -12.3862 H         1 UNK         0.0850 
    117 H117       27.4111    0.0738  -13.0301 H         1 UNK         0.0810 
    118 H118       25.8688   -0.0183  -12.1952 H         1 UNK         0.0810 
    119 H119       27.3515   -0.4716  -11.3627 H         1 UNK         0.0810 
    120 H120       28.8234    0.7213   -9.9884 H         1 UNK         0.3040 
    121 H121       30.7540    2.7661   -9.9378 H         1 UNK         0.0766 
    122 H122       32.6674    1.5127  -11.0661 H         1 UNK         0.0812 
    123 H123       31.4688    2.0687  -12.2165 H         1 UNK         0.0812 
    124 H124       31.5022    0.3752  -11.7277 H         1 UNK         0.0812 
    125 H125       31.8519    2.4748   -8.0634 H         1 UNK         0.3205 
    126 H126       31.5805    0.0070   -6.5151 H         1 UNK         0.0754 
    127 H127       32.7976    1.3275   -4.7736 H         1 UNK         0.0769 
    128 H128       31.4277    2.2344   -5.3903 H         1 UNK         0.0769 
    129 H129       33.0619    2.6328   -5.9216 H         1 UNK         0.0769 
    130 H130       33.5111   -1.0666   -5.5702 H         1 UNK         0.2981 
    131 H131       35.3951   -1.7384   -7.6099 H         1 UNK         0.0541 
    132 H132       35.6318    0.9065   -5.3975 H         1 UNK         0.3459 
    133 H133       37.3591    1.1075   -5.5536 H         1 UNK         0.3459 
    134 H134       36.2780   -3.3942   -6.0696 H         1 UNK         0.0612 
    135 H135       34.5465   -3.4550   -6.1045 H         1 UNK         0.0612 
    136 H136       33.8185   -4.5171   -3.9914 H         1 UNK         0.0624 
    137 H137       33.8690   -3.7364   -2.4316 H         1 UNK         0.0624 
@<TRIPOS>BOND
     1    1    2 1    
     2    1   72 1    
     3    1   73 1    
     4    1   74 1    
     5    2    3 2    
     6    2    4 am   BACKBONE|DICT|INTERRES
     7    4    5 1    
     8    4   75 1    
     9    5    6 1    
    10    5   35 1    
    11    5   76 1    
    12    6    7 1    
    13    6   77 1    
    14    6   78 1    
    15    7    8 1    
    16    8    9 1    
    17    8   79 1    
    18    8   80 1    
    19    9   10 ar   
    20    9   14 ar   
    21   10   11 ar   
    22   10   81 1    
    23   11   12 ar   
    24   11   71 1    
    25   12   13 ar   
    26   12   82 1    
    27   13   14 ar   
    28   13   15 1    
    29   14   83 1    
    30   15   16 1    
    31   15   84 1    
    32   15   85 1    
    33   16   17 1    
    34   17   18 1    
    35   17   86 1    
    36   17   87 1    
    37   18   19 1    
    38   18   37 1    
    39   18   88 1    
    40   19   20 am   BACKBONE|DICT|INTERRES
    41   19   89 1    
    42   20   21 2    
    43   20   22 1    
    44   22   23 1    
    45   22   24 1    
    46   22   90 1    
    47   23   91 1    
    48   23   92 1    
    49   23   93 1    
    50   24   25 am   BACKBONE|DICT|INTERRES
    51   24   94 1    
    52   25   26 2    
    53   25   27 1    
    54   27   28 1    
    55   27   29 1    
    56   27   95 1    
    57   28   96 1    
    58   28   97 1    
    59   28   98 1    
    60   29   30 am   BACKBONE|DICT|INTERRES
    61   29   99 1    
    62   30   31 2    
    63   30   32 1    
    64   32   33 1    
    65   32   34 1    
    66   32  100 1    
    67   33  101 1    
    68   33  102 1    
    69   33  103 1    
    70   34   35 am   BACKBONE|DICT|INTERRES
    71   34  104 1    
    72   35   36 2    
    73   37   38 2    
    74   37   39 am   BACKBONE|DICT|INTERRES
    75   39   40 1    
    76   39  105 1    
    77   40   41 1    
    78   40   42 1    
    79   40  106 1    
    80   41  107 1    
    81   41  108 1    
    82   41  109 1    
    83   42   43 2    
    84   42   44 am   BACKBONE|DICT|INTERRES
    85   44   45 1    
    86   44  110 1    
    87   45   46 1    
    88   45   47 1    
    89   45  111 1    
    90   46  112 1    
    91   46  113 1    
    92   46  114 1    
    93   47   48 2    
    94   47   49 am   BACKBONE|DICT|INTERRES
    95   49   50 1    
    96   49  115 1    
    97   50   51 1    
    98   50   52 1    
    99   50  116 1    
   100   51  117 1    
   101   51  118 1    
   102   51  119 1    
   103   52   53 2    
   104   52   54 am   BACKBONE|DICT|INTERRES
   105   54   55 1    
   106   54  120 1    
   107   55   56 1    
   108   55   57 1    
   109   55  121 1    
   110   56  122 1    
   111   56  123 1    
   112   56  124 1    
   113   57   58 2    
   114   57   59 am   BACKBONE|DICT|INTERRES
   115   59   60 1    
   116   59  125 1    
   117   60   61 1    
   118   60   62 1    
   119   60  126 1    
   120   61  127 1    
   121   61  128 1    
   122   61  129 1    
   123   62   63 2    
   124   62   64 am   BACKBONE|DICT|INTERRES
   125   64   65 1    
   126   64  130 1    
   127   65   66 1    
   128   65   69 1    
   129   65  131 1    
   130   66   67 am   BACKBONE|DICT|INTERRES
   131   66   68 2    
   132   67  132 1    
   133   67  133 1    
   134   69   70 1    
   135   69  134 1    
   136   69  135 1    
   137   70   71 1    
   138   71  136 1    
   139   71  137 1    
@<TRIPOS>SUBSTRUCTURE
     1 UNK         1 GROUP             0       ****    0 ROOT    
