@<TRIPOS>MOLECULE
3R137
137   139    1
SMALL
USER_CHARGES


@<TRIPOS>ATOM
      1 CA         24.4467   -6.2648   -4.4400 C.3       0 UNK        -0.2020 
      2 C          25.3814   -5.2755   -3.7630 C.2       0 UNK         0.4855 
      3 O          25.6069   -4.1879   -4.2952 O.2       0 UNK        -0.5197 
      4 N          25.9029   -5.6243   -2.5778 N.am      1 UNK        -0.4892 
      5 CA         26.8767   -4.8822   -1.7531 C.3       1 UNK         0.0835 
      6 C6         28.2181   -4.6311   -2.5001 C.3       12 UNK        -0.0855 
      7 S7         29.6701   -4.8832   -1.4282 S.3       12 UNK        -0.2931 
      8 C8         31.0303   -4.4368   -2.5670 C.3       12 UNK         0.0378 
      9 C9         31.1392   -2.9515   -2.9219 C.ar      12 UNK        -0.0802 
     10 C10        31.9008   -2.5790   -4.0346 C.ar      12 UNK        -0.0944 
     11 C11        32.0537   -1.2323   -4.3815 C.ar      12 UNK        -0.0787 
     12 C12        31.4125   -0.2473   -3.6250 C.ar      12 UNK        -0.0862 
     13 C13        30.6485   -0.6021   -2.5109 C.ar      12 UNK        -0.0733 
     14 C14        30.5325   -1.9488   -2.1555 C.ar      12 UNK        -0.0832 
     15 C15        29.9537    0.4578   -1.6713 C.3       12 UNK         0.0240 
     16 S16        28.1506    0.2200   -1.7015 S.3       12 UNK        -0.2522 
     17 C17        27.5717    1.6778   -2.6259 C.3       12 UNK        -0.0967 
     18 CA         27.6931    1.5736   -4.1708 C.3       5 UNK         0.0660 
     19 N          27.2855    0.2766   -4.7198 N.am      5 UNK        -0.4015 
     20 C          27.4814   -0.1083   -5.9907 C.2       4 UNK         0.4946 
     21 O          28.0646    0.5727   -6.8330 O.2       4 UNK        -0.5353 
     22 CA         26.8880   -1.4599   -6.4190 C.3       4 UNK         0.0277 
     23 CB         27.8927   -2.5918   -6.1536 C.3       4 UNK        -0.1981 
     24 N          25.6091   -1.7611   -5.7717 N.am      4 UNK        -0.4209 
     25 C          24.4951   -1.0253   -5.9122 C.2       3 UNK         0.4942 
     26 O          24.4118   -0.0429   -6.6473 O.2       3 UNK        -0.5208 
     27 CA         23.2906   -1.4059   -5.0363 C.3       3 UNK         0.0250 
     28 CB         22.4994   -2.5582   -5.6750 C.3       3 UNK        -0.1990 
     29 N          23.6784   -1.7712   -3.6719 N.am      3 UNK        -0.4232 
     30 C          24.3197   -0.9656   -2.8102 C.2       2 UNK         0.4993 
     31 O          24.5919    0.2120   -3.0464 O.2       2 UNK        -0.5286 
     32 CA         24.8061   -1.6177   -1.5112 C.3       2 UNK         0.0209 
     33 CB         23.6497   -1.8286   -0.5171 C.3       2 UNK        -0.1931 
     34 N          25.4532   -2.8848   -1.8443 N.am      2 UNK        -0.4546 
     35 C          26.3185   -3.5866   -1.1099 C.2       1 UNK         0.5154 
     36 O          26.6613   -3.2682    0.0293 O.2       1 UNK        -0.5181 
     37 C          26.8939    2.7154   -4.8257 C.2       5 UNK         0.5014 
     38 O          27.4852    3.7059   -5.2559 O.2       5 UNK        -0.5248 
     39 N          25.5646    2.5416   -4.8919 N.am      6 UNK        -0.4434 
     40 CA         24.6223    3.4910   -5.4879 C.3       6 UNK         0.0363 
     41 CB         23.1843    3.0579   -5.1597 C.3       6 UNK        -0.1936 
     42 C          24.8114    3.6532   -7.0056 C.2       6 UNK         0.5081 
     43 O          24.7726    4.7783   -7.5042 O.2       6 UNK        -0.5248 
     44 N          25.0259    2.5337   -7.7091 N.am      7 UNK        -0.4718 
     45 CA         25.2833    2.4936   -9.1511 C.3       7 UNK         0.0273 
     46 CB         25.0465    1.0610   -9.6578 C.3       7 UNK        -0.1935 
     47 C          26.6976    2.9591   -9.5412 C.2       7 UNK         0.5018 
     48 O          26.9075    3.2960  -10.7072 O.2       7 UNK        -0.5186 
     49 N          27.6350    2.9344   -8.5808 N.am      8 UNK        -0.4240 
     50 CA         29.0830    3.1188   -8.7386 C.3       8 UNK         0.0235 
     51 CB         29.4221    4.5596   -9.1767 C.3       8 UNK        -0.2000 
     52 C          29.6908    2.0363   -9.6534 C.2       8 UNK         0.4941 
     53 O          30.4629    2.3485  -10.5628 O.2       8 UNK        -0.5273 
     54 N          29.2963    0.7820   -9.4050 N.am      9 UNK        -0.4262 
     55 CA         29.7316   -0.4029  -10.1398 C.3       9 UNK         0.0264 
     56 CB         28.5427   -1.3700  -10.2650 C.3       9 UNK        -0.1955 
     57 C          30.8933   -1.0787   -9.4004 C.2       9 UNK         0.5031 
     58 O          30.9643   -0.9907   -8.1735 O.2       9 UNK        -0.5390 
     59 N          31.7523   -1.7713  -10.1623 N.am      10 UNK        -0.4204 
     60 CA         32.9701   -2.4630   -9.7157 C.3       10 UNK         0.0237 
     61 CB         32.6220   -3.6566   -8.7946 C.3       10 UNK        -0.1985 
     62 C          34.0153   -1.4903   -9.1253 C.2       10 UNK         0.4970 
     63 O          34.0360   -0.3202   -9.5144 O.2       10 UNK        -0.4914 
     64 N          34.8894   -1.9949   -8.2413 N.am      11 UNK        -0.4285 
     65 CA         35.9863   -1.2533   -7.5868 C.3       11 UNK         0.1007 
     66 C          37.0898   -0.7283   -8.5604 C.2       11 UNK         0.5703 
     67 N          37.2247   -1.2792   -9.7615 N.am      11 UNK        -0.7361 
     68 O          37.8635    0.1627   -8.2164 O.2       11 UNK        -0.4986 
     69 C69        35.4682   -0.1648   -6.5980 C.3       12 UNK        -0.0947 
     70 S70        34.6839   -0.8780   -5.1146 S.3       12 UNK        -0.2240 
     71 C71        32.9239   -0.8428   -5.5652 C.3       12 UNK         0.0194 
     72 H72        24.8123   -6.4980   -5.4396 H         1 UNK         0.0906 
     73 H73        24.3653   -7.1976   -3.8826 H         1 UNK         0.0906 
     74 H74        23.4497   -5.8356   -4.5339 H         1 UNK         0.0906 
     75 H75        25.6290   -6.5151   -2.1847 H         1 UNK         0.3140 
     76 H76        27.0739   -5.5563   -0.9174 H         1 UNK         0.1085 
     77 H77        28.2511   -3.6336   -2.9413 H         1 UNK         0.0836 
     78 H78        28.3245   -5.3236   -3.3369 H         1 UNK         0.0836 
     79 H79        30.9241   -5.0255   -3.4797 H         1 UNK         0.0731 
     80 H80        31.9712   -4.7457   -2.1098 H         1 UNK         0.0731 
     81 H81        32.3956   -3.3380   -4.6255 H         1 UNK         0.1312 
     82 H82        31.5205    0.7938   -3.8968 H         1 UNK         0.1406 
     83 H83        29.9514   -2.2027   -1.2802 H         1 UNK         0.1631 
     84 H84        30.2141    1.4615   -2.0101 H         1 UNK         0.0717 
     85 H85        30.3024    0.3809   -0.6406 H         1 UNK         0.0717 
     86 H86        26.5328    1.8287   -2.3266 H         1 UNK         0.0934 
     87 H87        28.1037    2.5604   -2.2655 H         1 UNK         0.0934 
     88 H88        28.7447    1.7110   -4.4323 H         1 UNK         0.0739 
     89 H89        26.7754   -0.3287   -4.0940 H         1 UNK         0.3093 
     90 H90        26.7013   -1.4105   -7.4930 H         1 UNK         0.0818 
     91 H91        27.5144   -3.5518   -6.5050 H         1 UNK         0.0819 
     92 H92        28.1185   -2.6882   -5.0918 H         1 UNK         0.0819 
     93 H93        28.8362   -2.4037   -6.6691 H         1 UNK         0.0819 
     94 H94        25.5800   -2.5932   -5.1848 H         1 UNK         0.3041 
     95 H95        22.6382   -0.5324   -4.9727 H         1 UNK         0.0784 
     96 H96        22.1810   -2.2976   -6.6854 H         1 UNK         0.0793 
     97 H97        23.0960   -3.4687   -5.7464 H         1 UNK         0.0793 
     98 H98        21.6004   -2.7883   -5.1031 H         1 UNK         0.0793 
     99 H99        23.4724   -2.7172   -3.3875 H         1 UNK         0.3024 
    100 H100       25.5438   -0.9542   -1.0563 H         1 UNK         0.1171 
    101 H101       24.0114   -2.2207    0.4335 H         1 UNK         0.0786 
    102 H102       23.1427   -0.8863   -0.3049 H         1 UNK         0.0786 
    103 H103       22.9033   -2.5241   -0.9022 H         1 UNK         0.0786 
    104 H104       25.3225   -3.2245   -2.7947 H         1 UNK         0.2977 
    105 H105       25.1695    1.6978   -4.4892 H         1 UNK         0.3127 
    106 H106       24.7979    4.4653   -5.0270 H         1 UNK         0.0770 
    107 H107       22.9509    2.0786   -5.5790 H         1 UNK         0.0814 
    108 H108       22.4616    3.7672   -5.5652 H         1 UNK         0.0814 
    109 H109       23.0209    3.0076   -4.0830 H         1 UNK         0.0814 
    110 H110       24.9663    1.6355   -7.2315 H         1 UNK         0.2983 
    111 H111       24.5714    3.1568   -9.6475 H         1 UNK         0.0947 
    112 H112       25.1935    0.9963  -10.7368 H         1 UNK         0.0806 
    113 H113       24.0296    0.7287   -9.4482 H         1 UNK         0.0806 
    114 H114       25.7323    0.3524   -9.1914 H         1 UNK         0.0806 
    115 H115       27.3481    2.5975   -7.6701 H         1 UNK         0.3000 
    116 H116       29.5178    2.9630   -7.7498 H         1 UNK         0.0850 
    117 H117       30.5004    4.7222   -9.1739 H         1 UNK         0.0810 
    118 H118       28.9815    5.2921   -8.5003 H         1 UNK         0.0810 
    119 H119       29.0652    4.7747  -10.1842 H         1 UNK         0.0810 
    120 H120       28.7683    0.6144   -8.5496 H         1 UNK         0.3040 
    121 H121       30.0589   -0.1175  -11.1420 H         1 UNK         0.0766 
    122 H122       27.6898   -0.8913  -10.7467 H         1 UNK         0.0812 
    123 H123       28.2177   -1.7350   -9.2907 H         1 UNK         0.0812 
    124 H124       28.8082   -2.2409  -10.8654 H         1 UNK         0.0812 
    125 H125       31.6084   -1.7603  -11.1626 H         1 UNK         0.3205 
    126 H126       33.4260   -2.8716  -10.6186 H         1 UNK         0.0754 
    127 H127       31.8548   -4.2861   -9.2457 H         1 UNK         0.0769 
    128 H128       32.2477   -3.3320   -7.8237 H         1 UNK         0.0769 
    129 H129       33.4875   -4.2963   -8.6199 H         1 UNK         0.0769 
    130 H130       34.8171   -2.9708   -7.9946 H         1 UNK         0.2981 
    131 H131       36.5151   -1.9970   -6.9898 H         1 UNK         0.0541 
    132 H132       36.6136   -2.0231  -10.0566 H         1 UNK         0.3459 
    133 H133       37.9472   -0.9434  -10.3787 H         1 UNK         0.3459 
    134 H134       34.7849    0.5290   -7.0893 H         1 UNK         0.0612 
    135 H135       36.2922    0.4466   -6.2274 H         1 UNK         0.0612 
    136 H136       32.6522    0.1474   -5.9344 H         1 UNK         0.0624 
    137 H137       32.7549   -1.5399   -6.3833 H         1 UNK         0.0624 
@<TRIPOS>BOND
     1    1    2 1    
     2    1   72 1    
     3    1   73 1    
     4    1   74 1    
     5    2    3 2    
     6    2    4 am   BACKBONE|DICT|INTERRES
     7    4    5 1    
     8    4   75 1    
     9    5    6 1    
    10    5   35 1    
    11    5   76 1    
    12    6    7 1    
    13    6   77 1    
    14    6   78 1    
    15    7    8 1    
    16    8    9 1    
    17    8   79 1    
    18    8   80 1    
    19    9   10 ar   
    20    9   14 ar   
    21   10   11 ar   
    22   10   81 1    
    23   11   12 ar   
    24   11   71 1    
    25   12   13 ar   
    26   12   82 1    
    27   13   14 ar   
    28   13   15 1    
    29   14   83 1    
    30   15   16 1    
    31   15   84 1    
    32   15   85 1    
    33   16   17 1    
    34   17   18 1    
    35   17   86 1    
    36   17   87 1    
    37   18   19 1    
    38   18   37 1    
    39   18   88 1    
    40   19   20 am   BACKBONE|DICT|INTERRES
    41   19   89 1    
    42   20   21 2    
    43   20   22 1    
    44   22   23 1    
    45   22   24 1    
    46   22   90 1    
    47   23   91 1    
    48   23   92 1    
    49   23   93 1    
    50   24   25 am   BACKBONE|DICT|INTERRES
    51   24   94 1    
    52   25   26 2    
    53   25   27 1    
    54   27   28 1    
    55   27   29 1    
    56   27   95 1    
    57   28   96 1    
    58   28   97 1    
    59   28   98 1    
    60   29   30 am   BACKBONE|DICT|INTERRES
    61   29   99 1    
    62   30   31 2    
    63   30   32 1    
    64   32   33 1    
    65   32   34 1    
    66   32  100 1    
    67   33  101 1    
    68   33  102 1    
    69   33  103 1    
    70   34   35 am   BACKBONE|DICT|INTERRES
    71   34  104 1    
    72   35   36 2    
    73   37   38 2    
    74   37   39 am   BACKBONE|DICT|INTERRES
    75   39   40 1    
    76   39  105 1    
    77   40   41 1    
    78   40   42 1    
    79   40  106 1    
    80   41  107 1    
    81   41  108 1    
    82   41  109 1    
    83   42   43 2    
    84   42   44 am   BACKBONE|DICT|INTERRES
    85   44   45 1    
    86   44  110 1    
    87   45   46 1    
    88   45   47 1    
    89   45  111 1    
    90   46  112 1    
    91   46  113 1    
    92   46  114 1    
    93   47   48 2    
    94   47   49 am   BACKBONE|DICT|INTERRES
    95   49   50 1    
    96   49  115 1    
    97   50   51 1    
    98   50   52 1    
    99   50  116 1    
   100   51  117 1    
   101   51  118 1    
   102   51  119 1    
   103   52   53 2    
   104   52   54 am   BACKBONE|DICT|INTERRES
   105   54   55 1    
   106   54  120 1    
   107   55   56 1    
   108   55   57 1    
   109   55  121 1    
   110   56  122 1    
   111   56  123 1    
   112   56  124 1    
   113   57   58 2    
   114   57   59 am   BACKBONE|DICT|INTERRES
   115   59   60 1    
   116   59  125 1    
   117   60   61 1    
   118   60   62 1    
   119   60  126 1    
   120   61  127 1    
   121   61  128 1    
   122   61  129 1    
   123   62   63 2    
   124   62   64 am   BACKBONE|DICT|INTERRES
   125   64   65 1    
   126   64  130 1    
   127   65   66 1    
   128   65   69 1    
   129   65  131 1    
   130   66   67 am   BACKBONE|DICT|INTERRES
   131   66   68 2    
   132   67  132 1    
   133   67  133 1    
   134   69   70 1    
   135   69  134 1    
   136   69  135 1    
   137   70   71 1    
   138   71  136 1    
   139   71  137 1    
@<TRIPOS>SUBSTRUCTURE
     1 UNK         1 GROUP             0       ****    0 ROOT    
