@<TRIPOS>MOLECULE
3R137
137   139    1
SMALL
USER_CHARGES


@<TRIPOS>ATOM
      1 CA         24.7441   -4.9171   -3.4193 C.3       0 UNK        -0.2020 
      2 C          25.4773   -3.7635   -2.7542 C.2       0 UNK         0.4855 
      3 O          25.7050   -2.7302   -3.3906 O.2       0 UNK        -0.5197 
      4 N          25.8225   -3.9379   -1.4712 N.am      1 UNK        -0.4892 
      5 CA         26.5736   -3.0037   -0.6163 C.3       1 UNK         0.0835 
      6 C6         28.0687   -2.8855   -1.0209 C.3       12 UNK        -0.0855 
      7 S7         28.9489   -4.4551   -0.7281 S.3       12 UNK        -0.2931 
      8 C8         30.6556   -3.9993   -1.1769 C.3       12 UNK         0.0378 
      9 C9         30.8205   -3.7683   -2.6733 C.ar      12 UNK        -0.0802 
     10 C10        31.3346   -2.5592   -3.1518 C.ar      12 UNK        -0.0944 
     11 C11        31.4910   -2.3506   -4.5257 C.ar      12 UNK        -0.0787 
     12 C12        31.1351   -3.3621   -5.4221 C.ar      12 UNK        -0.0862 
     13 C13        30.6045   -4.5689   -4.9566 C.ar      12 UNK        -0.0733 
     14 C14        30.4650   -4.7702   -3.5812 C.ar      12 UNK        -0.0832 
     15 C15        30.1705   -5.6581   -5.9290 C.3       12 UNK         0.0240 
     16 S16        28.9268   -5.0944   -7.1384 S.3       12 UNK        -0.2522 
     17 C17        27.5789   -4.4398   -6.0904 C.3       12 UNK        -0.0967 
     18 CA         27.0668   -3.0734   -6.6146 C.3       5 UNK         0.0660 
     19 N          25.6820   -2.8082   -6.2220 N.am      5 UNK        -0.4015 
     20 C          24.6895   -2.5419   -7.0790 C.2       4 UNK         0.4946 
     21 O          24.7898   -2.6317   -8.3037 O.2       4 UNK        -0.5353 
     22 CA         23.3504   -2.0737   -6.4821 C.3       4 UNK         0.0277 
     23 CB         22.4320   -3.2744   -6.2030 C.3       4 UNK        -0.1981 
     24 N          23.4352   -1.2287   -5.2821 N.am      4 UNK        -0.4209 
     25 C          24.1361   -0.0878   -5.1772 C.2       3 UNK         0.4942 
     26 O          24.9647    0.2977   -6.0003 O.2       3 UNK        -0.5208 
     27 CA         23.8368    0.7912   -3.9600 C.3       3 UNK         0.0250 
     28 CB         22.4857    1.5106   -4.1718 C.3       3 UNK        -0.1990 
     29 N          23.8551    0.0105   -2.7185 N.am      3 UNK        -0.4232 
     30 C          23.7186    0.5232   -1.4866 C.2       2 UNK         0.4993 
     31 O          23.6068    1.7264   -1.2487 O.2       2 UNK        -0.5286 
     32 CA         23.6824   -0.4656   -0.3102 C.3       2 UNK         0.0209 
     33 CB         22.2383   -0.9183   -0.0371 C.3       2 UNK        -0.1931 
     34 N          24.5275   -1.6439   -0.5081 N.am      2 UNK        -0.4546 
     35 C          25.8658   -1.6410   -0.4262 C.2       1 UNK         0.5154 
     36 O          26.5214   -0.6296   -0.1722 O.2       1 UNK        -0.5181 
     37 C          27.9674   -1.8965   -6.1956 C.2       5 UNK         0.5014 
     38 O          28.8822   -1.5606   -6.9451 O.2       5 UNK        -0.5248 
     39 N          27.6782   -1.2514   -5.0521 N.am      6 UNK        -0.4434 
     40 CA         28.4302   -0.1096   -4.5138 C.3       6 UNK         0.0363 
     41 CB         27.7613    0.3944   -3.2288 C.3       6 UNK        -0.1936 
     42 C          28.6419    1.0620   -5.4915 C.2       6 UNK         0.5081 
     43 O          29.7183    1.6601   -5.4930 O.2       6 UNK        -0.5248 
     44 N          27.6214    1.3677   -6.3020 N.am      7 UNK        -0.4718 
     45 CA         27.6558    2.4423   -7.2939 C.3       7 UNK         0.0273 
     46 CB         26.2306    2.9901   -7.4763 C.3       7 UNK        -0.1935 
     47 C          28.2365    2.0130   -8.6527 C.2       7 UNK         0.5018 
     48 O          28.5095    2.8941   -9.4709 O.2       7 UNK        -0.5186 
     49 N          28.3986    0.7017   -8.8996 N.am      8 UNK        -0.4240 
     50 CA         28.8129    0.1382  -10.1907 C.3       8 UNK         0.0235 
     51 CB         28.7219   -1.3966  -10.1542 C.3       8 UNK        -0.2000 
     52 C          30.2236    0.6061  -10.5771 C.2       8 UNK         0.4941 
     53 O          31.1951    0.2099   -9.9298 O.2       8 UNK        -0.5273 
     54 N          30.2909    1.5089  -11.5685 N.am      9 UNK        -0.4262 
     55 CA         31.4829    2.2399  -12.0250 C.3       9 UNK         0.0264 
     56 CB         32.4405    1.2869  -12.7718 C.3       9 UNK        -0.1955 
     57 C          32.1945    3.0196  -10.8967 C.2       9 UNK         0.5031 
     58 O          33.4141    3.1900  -10.9521 O.2       9 UNK        -0.5390 
     59 N          31.4352    3.4205   -9.8619 N.am      10 UNK        -0.4204 
     60 CA         31.9032    3.9814   -8.5862 C.3       10 UNK         0.0237 
     61 CB         32.4107    5.4250   -8.7872 C.3       10 UNK        -0.1985 
     62 C          32.9293    3.0828   -7.8561 C.2       10 UNK         0.4970 
     63 O          33.7986    3.5997   -7.1520 O.2       10 UNK        -0.4914 
     64 N          32.8228    1.7604   -8.0537 N.am      11 UNK        -0.4285 
     65 CA         33.7688    0.7302   -7.6018 C.3       11 UNK         0.1007 
     66 C          35.1301    0.7150   -8.3637 C.2       11 UNK         0.5703 
     67 N          35.2903    1.4346   -9.4694 N.am      11 UNK        -0.7361 
     68 O          36.0570    0.0133   -7.9656 O.2       11 UNK        -0.4986 
     69 C69        33.9210    0.6818   -6.0493 C.3       12 UNK        -0.0947 
     70 S70        33.7641   -1.0102   -5.3888 S.3       12 UNK        -0.2240 
     71 C71        31.9817   -1.0103   -5.0479 C.3       12 UNK         0.0194 
     72 H72        24.9951   -4.9801   -4.4764 H         1 UNK         0.0906 
     73 H73        23.6677   -4.7776   -3.3291 H         1 UNK         0.0906 
     74 H74        25.0037   -5.8709   -2.9603 H         1 UNK         0.0906 
     75 H75        25.5903   -4.8152   -1.0252 H         1 UNK         0.3140 
     76 H76        26.5508   -3.4408    0.3837 H         1 UNK         0.1085 
     77 H77        28.1688   -2.6123   -2.0722 H         1 UNK         0.0836 
     78 H78        28.5793   -2.1115   -0.4450 H         1 UNK         0.0836 
     79 H79        30.9533   -3.1179   -0.6066 H         1 UNK         0.0731 
     80 H80        31.3259   -4.8039   -0.8715 H         1 UNK         0.0731 
     81 H81        31.6043   -1.7750   -2.4575 H         1 UNK         0.1312 
     82 H82        31.2341   -3.1940   -6.4862 H         1 UNK         0.1406 
     83 H83        30.0620   -5.7031   -3.2103 H         1 UNK         0.1631 
     84 H84        31.0471   -6.0177   -6.4692 H         1 UNK         0.0717 
     85 H85        29.7656   -6.5187   -5.3943 H         1 UNK         0.0717 
     86 H86        26.7759   -5.1769   -6.1292 H         1 UNK         0.0934 
     87 H87        27.8774   -4.3801   -5.0422 H         1 UNK         0.0934 
     88 H88        27.1170   -3.1063   -7.7051 H         1 UNK         0.0739 
     89 H89        25.5076   -2.7045   -5.2261 H         1 UNK         0.3093 
     90 H90        22.8701   -1.4634   -7.2499 H         1 UNK         0.0818 
     91 H91        21.4280   -2.9522   -5.9266 H         1 UNK         0.0819 
     92 H92        22.3331   -3.9048   -7.0881 H         1 UNK         0.0819 
     93 H93        22.8169   -3.9013   -5.4001 H         1 UNK         0.0819 
     94 H94        22.7664   -1.4365   -4.5553 H         1 UNK         0.3041 
     95 H95        24.6204    1.5487   -3.8986 H         1 UNK         0.0784 
     96 H96        22.4444    1.9858   -5.1532 H         1 UNK         0.0793 
     97 H97        21.6437    0.8207   -4.1076 H         1 UNK         0.0793 
     98 H98        22.3254    2.3000   -3.4381 H         1 UNK         0.0793 
     99 H99        24.0516   -0.9780   -2.8087 H         1 UNK         0.3024 
    100 H100       24.0432    0.0688    0.5722 H         1 UNK         0.1171 
    101 H101       22.1813   -1.5500    0.8496 H         1 UNK         0.0786 
    102 H102       21.5872   -0.0602    0.1371 H         1 UNK         0.0786 
    103 H103       21.8223   -1.4772   -0.8762 H         1 UNK         0.0786 
    104 H104       24.0646   -2.5199   -0.7028 H         1 UNK         0.2977 
    105 H105       26.9301   -1.6090   -4.4682 H         1 UNK         0.3127 
    106 H106       29.4141   -0.4849   -4.2415 H         1 UNK         0.0770 
    107 H107       26.7330    0.7057   -3.4016 H         1 UNK         0.0814 
    108 H108       28.2969    1.2501   -2.8153 H         1 UNK         0.0814 
    109 H109       27.7547   -0.3755   -2.4624 H         1 UNK         0.0814 
    110 H110       26.7505    0.8450   -6.2239 H         1 UNK         0.2983 
    111 H111       28.2815    3.2557   -6.9197 H         1 UNK         0.0947 
    112 H112       26.2208    3.8378   -8.1629 H         1 UNK         0.0806 
    113 H113       25.8134    3.3349   -6.5300 H         1 UNK         0.0806 
    114 H114       25.5575    2.2337   -7.8822 H         1 UNK         0.0806 
    115 H115       28.2774    0.0433   -8.1376 H         1 UNK         0.3000 
    116 H116       28.1034    0.4917  -10.9419 H         1 UNK         0.0850 
    117 H117       27.7283   -1.7314   -9.8552 H         1 UNK         0.0810 
    118 H118       29.4450   -1.8302   -9.4626 H         1 UNK         0.0810 
    119 H119       28.9259   -1.8201  -11.1383 H         1 UNK         0.0810 
    120 H120       29.4216    1.7988  -11.9967 H         1 UNK         0.3040 
    121 H121       31.1339    2.9891  -12.7370 H         1 UNK         0.0766 
    122 H122       31.9262    0.7515  -13.5696 H         1 UNK         0.0812 
    123 H123       32.8790    0.5481  -12.0999 H         1 UNK         0.0812 
    124 H124       33.2630    1.8365  -13.2313 H         1 UNK         0.0812 
    125 H125       30.4372    3.2281   -9.9071 H         1 UNK         0.3205 
    126 H126       31.0285    4.0244   -7.9354 H         1 UNK         0.0754 
    127 H127       33.3214    5.4525   -9.3865 H         1 UNK         0.0769 
    128 H128       32.6353    5.8997   -7.8312 H         1 UNK         0.0769 
    129 H129       31.6629    6.0422   -9.2849 H         1 UNK         0.0769 
    130 H130       32.1039    1.4120   -8.6815 H         1 UNK         0.2981 
    131 H131       33.2857   -0.1934   -7.9225 H         1 UNK         0.0541 
    132 H132       34.5470    2.0208   -9.8355 H         1 UNK         0.3459 
    133 H133       36.1754    1.3992   -9.9487 H         1 UNK         0.3459 
    134 H134       33.1666    1.3022   -5.5628 H         1 UNK         0.0612 
    135 H135       34.8766    1.0988   -5.7265 H         1 UNK         0.0612 
    136 H136       31.4407   -0.7513   -5.9601 H         1 UNK         0.0624 
    137 H137       31.7617   -0.2222   -4.3262 H         1 UNK         0.0624 
@<TRIPOS>BOND
     1    1    2 1    
     2    1   72 1    
     3    1   73 1    
     4    1   74 1    
     5    2    3 2    
     6    2    4 am   BACKBONE|DICT|INTERRES
     7    4    5 1    
     8    4   75 1    
     9    5    6 1    
    10    5   35 1    
    11    5   76 1    
    12    6    7 1    
    13    6   77 1    
    14    6   78 1    
    15    7    8 1    
    16    8    9 1    
    17    8   79 1    
    18    8   80 1    
    19    9   10 ar   
    20    9   14 ar   
    21   10   11 ar   
    22   10   81 1    
    23   11   12 ar   
    24   11   71 1    
    25   12   13 ar   
    26   12   82 1    
    27   13   14 ar   
    28   13   15 1    
    29   14   83 1    
    30   15   16 1    
    31   15   84 1    
    32   15   85 1    
    33   16   17 1    
    34   17   18 1    
    35   17   86 1    
    36   17   87 1    
    37   18   19 1    
    38   18   37 1    
    39   18   88 1    
    40   19   20 am   BACKBONE|DICT|INTERRES
    41   19   89 1    
    42   20   21 2    
    43   20   22 1    
    44   22   23 1    
    45   22   24 1    
    46   22   90 1    
    47   23   91 1    
    48   23   92 1    
    49   23   93 1    
    50   24   25 am   BACKBONE|DICT|INTERRES
    51   24   94 1    
    52   25   26 2    
    53   25   27 1    
    54   27   28 1    
    55   27   29 1    
    56   27   95 1    
    57   28   96 1    
    58   28   97 1    
    59   28   98 1    
    60   29   30 am   BACKBONE|DICT|INTERRES
    61   29   99 1    
    62   30   31 2    
    63   30   32 1    
    64   32   33 1    
    65   32   34 1    
    66   32  100 1    
    67   33  101 1    
    68   33  102 1    
    69   33  103 1    
    70   34   35 am   BACKBONE|DICT|INTERRES
    71   34  104 1    
    72   35   36 2    
    73   37   38 2    
    74   37   39 am   BACKBONE|DICT|INTERRES
    75   39   40 1    
    76   39  105 1    
    77   40   41 1    
    78   40   42 1    
    79   40  106 1    
    80   41  107 1    
    81   41  108 1    
    82   41  109 1    
    83   42   43 2    
    84   42   44 am   BACKBONE|DICT|INTERRES
    85   44   45 1    
    86   44  110 1    
    87   45   46 1    
    88   45   47 1    
    89   45  111 1    
    90   46  112 1    
    91   46  113 1    
    92   46  114 1    
    93   47   48 2    
    94   47   49 am   BACKBONE|DICT|INTERRES
    95   49   50 1    
    96   49  115 1    
    97   50   51 1    
    98   50   52 1    
    99   50  116 1    
   100   51  117 1    
   101   51  118 1    
   102   51  119 1    
   103   52   53 2    
   104   52   54 am   BACKBONE|DICT|INTERRES
   105   54   55 1    
   106   54  120 1    
   107   55   56 1    
   108   55   57 1    
   109   55  121 1    
   110   56  122 1    
   111   56  123 1    
   112   56  124 1    
   113   57   58 2    
   114   57   59 am   BACKBONE|DICT|INTERRES
   115   59   60 1    
   116   59  125 1    
   117   60   61 1    
   118   60   62 1    
   119   60  126 1    
   120   61  127 1    
   121   61  128 1    
   122   61  129 1    
   123   62   63 2    
   124   62   64 am   BACKBONE|DICT|INTERRES
   125   64   65 1    
   126   64  130 1    
   127   65   66 1    
   128   65   69 1    
   129   65  131 1    
   130   66   67 am   BACKBONE|DICT|INTERRES
   131   66   68 2    
   132   67  132 1    
   133   67  133 1    
   134   69   70 1    
   135   69  134 1    
   136   69  135 1    
   137   70   71 1    
   138   71  136 1    
   139   71  137 1    
@<TRIPOS>SUBSTRUCTURE
     1 UNK         1 GROUP             0       ****    0 ROOT    
