@<TRIPOS>MOLECULE
3R137
137   139    1
SMALL
USER_CHARGES


@<TRIPOS>ATOM
      1 CA         25.4632   -3.0439    3.3815 C.3       0 UNK        -0.2020 
      2 C          26.0319   -3.8299    2.2031 C.2       0 UNK         0.4855 
      3 O          25.7876   -5.0303    2.1039 O.2       0 UNK        -0.5197 
      4 N          26.7917   -3.2117    1.2873 N.am      1 UNK        -0.4892 
      5 CA         27.1437   -1.7844    1.2349 C.3       1 UNK         0.0835 
      6 C6         28.4178   -1.5542    0.3832 C.3       12 UNK        -0.0855 
      7 S7         28.2620   -2.0803   -1.3625 S.3       12 UNK        -0.2931 
      8 C8         29.9498   -2.6739   -1.6934 C.3       12 UNK         0.0378 
      9 C9         30.2360   -2.7443   -3.1866 C.ar      12 UNK        -0.0802 
     10 C10        31.1337   -1.8482   -3.7762 C.ar      12 UNK        -0.0944 
     11 C11        31.4160   -1.9218   -5.1439 C.ar      12 UNK        -0.0787 
     12 C12        30.7877   -2.8952   -5.9254 C.ar      12 UNK        -0.0862 
     13 C13        29.8894   -3.7960   -5.3472 C.ar      12 UNK        -0.0733 
     14 C14        29.6186   -3.7173   -3.9777 C.ar      12 UNK        -0.0832 
     15 C15        29.2238   -4.8695   -6.1912 C.3       12 UNK         0.0240 
     16 S16        27.5751   -4.3510   -6.7531 S.3       12 UNK        -0.2522 
     17 C17        27.9572   -3.3529   -8.2348 C.3       12 UNK        -0.0967 
     18 CA         27.3819   -1.9143   -8.2072 C.3       5 UNK         0.0660 
     19 N          25.9898   -1.8691   -7.7555 N.am      5 UNK        -0.4015 
     20 C          25.1809   -0.8046   -7.8296 C.2       4 UNK         0.4946 
     21 O          25.5069    0.2612   -8.3543 O.2       4 UNK        -0.5353 
     22 CA         23.8025   -0.9285   -7.1573 C.3       4 UNK         0.0277 
     23 CB         22.7470   -1.3667   -8.1845 C.3       4 UNK        -0.1981 
     24 N          23.7723   -1.8362   -6.0005 N.am      4 UNK        -0.4209 
     25 C          24.5156   -1.6920   -4.8937 C.2       3 UNK         0.4942 
     26 O          25.3670   -0.8125   -4.7515 O.2       3 UNK        -0.5208 
     27 CA         24.3180   -2.7350   -3.7851 C.3       3 UNK         0.0250 
     28 CB         25.3616   -3.8561   -3.9085 C.3       3 UNK        -0.1990 
     29 N          24.4494   -2.1150   -2.4678 N.am      3 UNK        -0.4232 
     30 C          23.4836   -1.4149   -1.8556 C.2       2 UNK         0.4993 
     31 O          22.3599   -1.2507   -2.3342 O.2       2 UNK        -0.5286 
     32 CA         23.8126   -0.8211   -0.4732 C.3       2 UNK         0.0209 
     33 CB         22.6177   -0.8964    0.4972 C.3       2 UNK        -0.1931 
     34 N          24.9655   -1.4924    0.1304 N.am      2 UNK        -0.4546 
     35 C          25.9820   -0.8849    0.7541 C.2       1 UNK         0.5154 
     36 O          26.0328    0.3291    0.9561 O.2       1 UNK        -0.5181 
     37 C          28.3043   -0.9046   -7.4907 C.2       5 UNK         0.5014 
     38 O          29.2812   -0.4719   -8.1042 O.2       5 UNK        -0.5248 
     39 N          27.9550   -0.4594   -6.2731 N.am      6 UNK        -0.4434 
     40 CA         28.6560    0.6242   -5.5748 C.3       6 UNK         0.0363 
     41 CB         28.1637    0.7101   -4.1235 C.3       6 UNK        -0.1936 
     42 C          28.5307    1.9923   -6.2741 C.2       6 UNK         0.5081 
     43 O          29.3547    2.8683   -6.0134 O.2       6 UNK        -0.5248 
     44 N          27.5310    2.1496   -7.1530 N.am      7 UNK        -0.4718 
     45 CA         27.3725    3.3011   -8.0385 C.3       7 UNK         0.0273 
     46 CB         25.9256    3.8153   -7.9526 C.3       7 UNK        -0.1935 
     47 C          27.7311    2.9339   -9.4867 C.2       7 UNK         0.5018 
     48 O          28.4398    3.7003  -10.1388 O.2       7 UNK        -0.5186 
     49 N          27.2233    1.7908   -9.9740 N.am      8 UNK        -0.4240 
     50 CA         27.3378    1.3699  -11.3735 C.3       8 UNK         0.0235 
     51 CB         26.2912    0.2861  -11.6807 C.3       8 UNK        -0.2000 
     52 C          28.7466    0.9058  -11.7793 C.2       8 UNK         0.4941 
     53 O          29.2000    1.2696  -12.8654 O.2       8 UNK        -0.5273 
     54 N          29.4104    0.1174  -10.9218 N.am      9 UNK        -0.4262 
     55 CA         30.7935   -0.3290  -11.1234 C.3       9 UNK         0.0264 
     56 CB         30.9687   -1.7719  -10.6178 C.3       9 UNK        -0.1955 
     57 C          31.7792    0.6175  -10.4240 C.2       9 UNK         0.5031 
     58 O          32.8806    0.8224  -10.9343 O.2       9 UNK        -0.5390 
     59 N          31.3715    1.1724   -9.2724 N.am      10 UNK        -0.4204 
     60 CA         32.0238    2.2163   -8.4664 C.3       10 UNK         0.0237 
     61 CB         32.1996    3.5146   -9.2785 C.3       10 UNK        -0.1985 
     62 C          33.3395    1.8148   -7.7734 C.2       10 UNK         0.4970 
     63 O          33.6879    2.4426   -6.7732 O.2       10 UNK        -0.4914 
     64 N          34.0280    0.7846   -8.2812 N.am      11 UNK        -0.4285 
     65 CA         35.2823    0.2203   -7.7520 C.3       11 UNK         0.1007 
     66 C          36.5158    1.1688   -7.8750 C.2       11 UNK         0.5703 
     67 N          36.4777    2.1952   -8.7171 N.am      11 UNK        -0.7361 
     68 O          37.5386    0.9566   -7.2273 O.2       11 UNK        -0.4986 
     69 C69        35.1208   -0.3848   -6.3251 C.3       12 UNK        -0.0947 
     70 S70        33.9417   -1.7761   -6.2551 S.3       12 UNK        -0.2240 
     71 C71        32.3928   -0.9458   -5.7803 C.3       12 UNK         0.0194 
     72 H72        24.9132   -3.7064    4.0496 H         1 UNK         0.0906 
     73 H73        26.2583   -2.5796    3.9637 H         1 UNK         0.0906 
     74 H74        24.7727   -2.2719    3.0440 H         1 UNK         0.0906 
     75 H75        27.1652   -3.7604    0.5248 H         1 UNK         0.3140 
     76 H76        27.3816   -1.4548    2.2480 H         1 UNK         0.1085 
     77 H77        28.7056   -0.5009    0.4003 H         1 UNK         0.0836 
     78 H78        29.2503   -2.0894    0.8431 H         1 UNK         0.0836 
     79 H79        30.0820   -3.6597   -1.2452 H         1 UNK         0.0731 
     80 H80        30.6673   -2.0127   -1.2046 H         1 UNK         0.0731 
     81 H81        31.6165   -1.0946   -3.1693 H         1 UNK         0.1312 
     82 H82        31.0059   -2.9507   -6.9829 H         1 UNK         0.1406 
     83 H83        28.9231   -4.4115   -3.5256 H         1 UNK         0.1631 
     84 H84        29.1180   -5.7812   -5.6012 H         1 UNK         0.0717 
     85 H85        29.8465   -5.1368   -7.0464 H         1 UNK         0.0717 
     86 H86        29.0320   -3.3415   -8.4237 H         1 UNK         0.0934 
     87 H87        27.5297   -3.8849   -9.0862 H         1 UNK         0.0934 
     88 H88        27.3649   -1.5810   -9.2450 H         1 UNK         0.0739 
     89 H89        25.6553   -2.7005   -7.2901 H         1 UNK         0.3093 
     90 H90        23.5351    0.0668   -6.7961 H         1 UNK         0.0818 
     91 H91        21.7448   -1.3528   -7.7557 H         1 UNK         0.0819 
     92 H92        22.7374   -0.6950   -9.0444 H         1 UNK         0.0819 
     93 H93        22.9394   -2.3727   -8.5596 H         1 UNK         0.0819 
     94 H94        23.1061   -2.5948   -6.0410 H         1 UNK         0.3041 
     95 H95        23.3211   -3.1729   -3.8732 H         1 UNK         0.0784 
     96 H96        25.2410   -4.3977   -4.8470 H         1 UNK         0.0793 
     97 H97        26.3805   -3.4656   -3.8825 H         1 UNK         0.0793 
     98 H98        25.2618   -4.5842   -3.1034 H         1 UNK         0.0793 
     99 H99        25.3743   -2.1187   -2.0621 H         1 UNK         0.3024 
    100 H100       24.0482    0.2310   -0.6501 H         1 UNK         0.1171 
    101 H101       22.8611   -0.4467    1.4599 H         1 UNK         0.0786 
    102 H102       21.7536   -0.3604    0.1024 H         1 UNK         0.0786 
    103 H103       22.3109   -1.9274    0.6766 H         1 UNK         0.0786 
    104 H104       25.0061   -2.4976    0.0278 H         1 UNK         0.2977 
    105 H105       27.1122   -0.8097   -5.8278 H         1 UNK         0.3127 
    106 H106       29.7170    0.3707   -5.5547 H         1 UNK         0.0770 
    107 H107       27.1246    1.0352   -4.0666 H         1 UNK         0.0814 
    108 H108       28.2425   -0.2552   -3.6258 H         1 UNK         0.0814 
    109 H109       28.7600    1.4212   -3.5509 H         1 UNK         0.0814 
    110 H110       26.8925    1.3767   -7.3047 H         1 UNK         0.2983 
    111 H111       28.0356    4.1133   -7.7319 H         1 UNK         0.0947 
    112 H112       25.6827    4.1393   -6.9406 H         1 UNK         0.0806 
    113 H113       25.2025    3.0510   -8.2403 H         1 UNK         0.0806 
    114 H114       25.7761    4.6716   -8.6116 H         1 UNK         0.0806 
    115 H115       26.6085    1.2360   -9.3801 H         1 UNK         0.3000 
    116 H116       27.0973    2.2370  -11.9931 H         1 UNK         0.0850 
    117 H117       26.3202    0.0053  -12.7344 H         1 UNK         0.0810 
    118 H118       25.2818    0.6394  -11.4683 H         1 UNK         0.0810 
    119 H119       26.4547   -0.6202  -11.0999 H         1 UNK         0.0810 
    120 H120       28.9989   -0.0965  -10.0209 H         1 UNK         0.3040 
    121 H121       31.0295   -0.3251  -12.1898 H         1 UNK         0.0766 
    122 H122       30.8771   -1.8480   -9.5349 H         1 UNK         0.0812 
    123 H123       31.9568   -2.1521  -10.8802 H         1 UNK         0.0812 
    124 H124       30.2353   -2.4422  -11.0660 H         1 UNK         0.0812 
    125 H125       30.5071    0.8086   -8.8795 H         1 UNK         0.3205 
    126 H126       31.3228    2.4329   -7.6612 H         1 UNK         0.0754 
    127 H127       32.5778    4.3206   -8.6482 H         1 UNK         0.0769 
    128 H128       31.2502    3.8500   -9.6963 H         1 UNK         0.0769 
    129 H129       32.9033    3.3899  -10.1019 H         1 UNK         0.0769 
    130 H130       33.7070    0.4064   -9.1652 H         1 UNK         0.2981 
    131 H131       35.5226   -0.6070   -8.4204 H         1 UNK         0.0541 
    132 H132       35.6546    2.3712   -9.2704 H         1 UNK         0.3459 
    133 H133       37.2825    2.7962   -8.7998 H         1 UNK         0.3459 
    134 H134       34.8435    0.3792   -5.5983 H         1 UNK         0.0612 
    135 H135       36.0739   -0.7858   -5.9767 H         1 UNK         0.0612 
    136 H136       31.9321   -0.5081   -6.6664 H         1 UNK         0.0624 
    137 H137       32.6056   -0.1216   -5.0980 H         1 UNK         0.0624 
@<TRIPOS>BOND
     1    1    2 1    
     2    1   72 1    
     3    1   73 1    
     4    1   74 1    
     5    2    3 2    
     6    2    4 am   BACKBONE|DICT|INTERRES
     7    4    5 1    
     8    4   75 1    
     9    5    6 1    
    10    5   35 1    
    11    5   76 1    
    12    6    7 1    
    13    6   77 1    
    14    6   78 1    
    15    7    8 1    
    16    8    9 1    
    17    8   79 1    
    18    8   80 1    
    19    9   10 ar   
    20    9   14 ar   
    21   10   11 ar   
    22   10   81 1    
    23   11   12 ar   
    24   11   71 1    
    25   12   13 ar   
    26   12   82 1    
    27   13   14 ar   
    28   13   15 1    
    29   14   83 1    
    30   15   16 1    
    31   15   84 1    
    32   15   85 1    
    33   16   17 1    
    34   17   18 1    
    35   17   86 1    
    36   17   87 1    
    37   18   19 1    
    38   18   37 1    
    39   18   88 1    
    40   19   20 am   BACKBONE|DICT|INTERRES
    41   19   89 1    
    42   20   21 2    
    43   20   22 1    
    44   22   23 1    
    45   22   24 1    
    46   22   90 1    
    47   23   91 1    
    48   23   92 1    
    49   23   93 1    
    50   24   25 am   BACKBONE|DICT|INTERRES
    51   24   94 1    
    52   25   26 2    
    53   25   27 1    
    54   27   28 1    
    55   27   29 1    
    56   27   95 1    
    57   28   96 1    
    58   28   97 1    
    59   28   98 1    
    60   29   30 am   BACKBONE|DICT|INTERRES
    61   29   99 1    
    62   30   31 2    
    63   30   32 1    
    64   32   33 1    
    65   32   34 1    
    66   32  100 1    
    67   33  101 1    
    68   33  102 1    
    69   33  103 1    
    70   34   35 am   BACKBONE|DICT|INTERRES
    71   34  104 1    
    72   35   36 2    
    73   37   38 2    
    74   37   39 am   BACKBONE|DICT|INTERRES
    75   39   40 1    
    76   39  105 1    
    77   40   41 1    
    78   40   42 1    
    79   40  106 1    
    80   41  107 1    
    81   41  108 1    
    82   41  109 1    
    83   42   43 2    
    84   42   44 am   BACKBONE|DICT|INTERRES
    85   44   45 1    
    86   44  110 1    
    87   45   46 1    
    88   45   47 1    
    89   45  111 1    
    90   46  112 1    
    91   46  113 1    
    92   46  114 1    
    93   47   48 2    
    94   47   49 am   BACKBONE|DICT|INTERRES
    95   49   50 1    
    96   49  115 1    
    97   50   51 1    
    98   50   52 1    
    99   50  116 1    
   100   51  117 1    
   101   51  118 1    
   102   51  119 1    
   103   52   53 2    
   104   52   54 am   BACKBONE|DICT|INTERRES
   105   54   55 1    
   106   54  120 1    
   107   55   56 1    
   108   55   57 1    
   109   55  121 1    
   110   56  122 1    
   111   56  123 1    
   112   56  124 1    
   113   57   58 2    
   114   57   59 am   BACKBONE|DICT|INTERRES
   115   59   60 1    
   116   59  125 1    
   117   60   61 1    
   118   60   62 1    
   119   60  126 1    
   120   61  127 1    
   121   61  128 1    
   122   61  129 1    
   123   62   63 2    
   124   62   64 am   BACKBONE|DICT|INTERRES
   125   64   65 1    
   126   64  130 1    
   127   65   66 1    
   128   65   69 1    
   129   65  131 1    
   130   66   67 am   BACKBONE|DICT|INTERRES
   131   66   68 2    
   132   67  132 1    
   133   67  133 1    
   134   69   70 1    
   135   69  134 1    
   136   69  135 1    
   137   70   71 1    
   138   71  136 1    
   139   71  137 1    
@<TRIPOS>SUBSTRUCTURE
     1 UNK         1 GROUP             0       ****    0 ROOT    
