@<TRIPOS>MOLECULE
3R137
137   139    1
SMALL
USER_CHARGES


@<TRIPOS>ATOM
      1 CA         31.0737    0.4711   -1.8255 C.3       0 UNK        -0.2020 
      2 C          30.0589   -0.6034   -2.1841 C.2       0 UNK         0.4855 
      3 O          29.4756   -0.5551   -3.2658 O.2       0 UNK        -0.5197 
      4 N          29.8505   -1.5729   -1.2842 N.am      1 UNK        -0.4892 
      5 CA         28.8934   -2.6717   -1.4483 C.3       1 UNK         0.0835 
      6 C6         29.1338   -3.8256   -0.4367 C.3       12 UNK        -0.0855 
      7 S7         30.8703   -4.3825   -0.3167 S.3       12 UNK        -0.2931 
      8 C8         30.9328   -5.7533   -1.5155 C.3       12 UNK         0.0378 
      9 C9         30.9235   -5.2467   -2.9501 C.ar      12 UNK        -0.0802 
     10 C10        32.0070   -4.5077   -3.4363 C.ar      12 UNK        -0.0944 
     11 C11        31.9983   -4.0098   -4.7417 C.ar      12 UNK        -0.0787 
     12 C12        30.9061   -4.2742   -5.5708 C.ar      12 UNK        -0.0862 
     13 C13        29.8133   -5.0052   -5.0943 C.ar      12 UNK        -0.0733 
     14 C14        29.8320   -5.5006   -3.7867 C.ar      12 UNK        -0.0832 
     15 C15        28.5961   -5.2226   -5.9826 C.3       12 UNK         0.0240 
     16 S16        27.1614   -4.2498   -5.4178 S.3       12 UNK        -0.2522 
     17 C17        27.7955   -2.5407   -5.5042 C.3       12 UNK        -0.0967 
     18 CA         27.1286   -1.6864   -6.6041 C.3       5 UNK         0.0660 
     19 N          25.6685   -1.6229   -6.4718 N.am      5 UNK        -0.4015 
     20 C          24.8337   -1.0370   -7.3425 C.2       4 UNK         0.4946 
     21 O          25.2028   -0.4818   -8.3761 O.2       4 UNK        -0.5353 
     22 CA         23.3402   -1.0298   -6.9789 C.3       4 UNK         0.0277 
     23 CB         22.7030   -2.3987   -7.2666 C.3       4 UNK        -0.1981 
     24 N          23.1164   -0.6608   -5.5801 N.am      4 UNK        -0.4209 
     25 C          23.3440    0.5605   -5.0729 C.2       3 UNK         0.4942 
     26 O          23.6552    1.5383   -5.7528 O.2       3 UNK        -0.5208 
     27 CA         23.2502    0.7047   -3.5410 C.3       3 UNK         0.0250 
     28 CB         21.8231    1.0919   -3.1216 C.3       3 UNK        -0.1990 
     29 N          23.6708   -0.4965   -2.8048 N.am      3 UNK        -0.4232 
     30 C          24.8889   -1.0500   -2.8914 C.2       2 UNK         0.4993 
     31 O          25.7866   -0.5932   -3.6012 O.2       2 UNK        -0.5286 
     32 CA         25.1055   -2.3662   -2.1217 C.3       2 UNK         0.0209 
     33 CB         24.3065   -3.5099   -2.7721 C.3       2 UNK        -0.1931 
     34 N          26.5187   -2.7552   -2.0771 N.am      2 UNK        -0.4546 
     35 C          27.4441   -2.1546   -1.3181 C.2       1 UNK         0.5154 
     36 O          27.1817   -1.2678   -0.4995 O.2       1 UNK        -0.5181 
     37 C          27.7625   -0.2847   -6.6147 C.2       5 UNK         0.5014 
     38 O          28.6380   -0.0235   -7.4401 O.2       5 UNK        -0.5248 
     39 N          27.2761    0.6027   -5.7375 N.am      6 UNK        -0.4434 
     40 CA         27.6874    2.0045   -5.6418 C.3       6 UNK         0.0363 
     41 CB         26.9837    2.6517   -4.4390 C.3       6 UNK        -0.1936 
     42 C          27.4390    2.8238   -6.9243 C.2       6 UNK         0.5081 
     43 O          28.1204    3.8282   -7.1278 O.2       6 UNK        -0.5248 
     44 N          26.4924    2.3853   -7.7651 N.am      7 UNK        -0.4718 
     45 CA         26.2269    2.9562   -9.0833 C.3       7 UNK         0.0273 
     46 CB         24.7109    2.9518   -9.3435 C.3       7 UNK        -0.1935 
     47 C          26.9739    2.1906  -10.1874 C.2       7 UNK         0.5018 
     48 O          27.6294    2.8216  -11.0171 O.2       7 UNK        -0.5186 
     49 N          26.8357    0.8567  -10.2029 N.am      8 UNK        -0.4240 
     50 CA         27.3229   -0.0179  -11.2723 C.3       8 UNK         0.0235 
     51 CB         26.6105   -1.3782  -11.1870 C.3       8 UNK        -0.2000 
     52 C          28.8465   -0.2098  -11.2766 C.2       8 UNK         0.4941 
     53 O          29.4576   -0.1262  -12.3431 O.2       8 UNK        -0.5273 
     54 N          29.4260   -0.4855  -10.1020 N.am      9 UNK        -0.4262 
     55 CA         30.8635   -0.6905   -9.9165 C.3       9 UNK         0.0264 
     56 CB         31.1052   -1.8284   -8.9069 C.3       9 UNK        -0.1955 
     57 C          31.5383    0.6033   -9.4464 C.2       9 UNK         0.5031 
     58 O          32.6086    0.9400   -9.9544 O.2       9 UNK        -0.5390 
     59 N          30.8992    1.2946   -8.4885 N.am      10 UNK        -0.4204 
     60 CA         31.3387    2.5428   -7.8500 C.3       10 UNK         0.0237 
     61 CB         31.2678    3.7172   -8.8488 C.3       10 UNK        -0.1985 
     62 C          32.7091    2.4214   -7.1506 C.2       10 UNK         0.4970 
     63 O          33.4991    3.3677   -7.1652 O.2       10 UNK        -0.4914 
     64 N          32.9647    1.2473   -6.5615 N.am      11 UNK        -0.4285 
     65 CA         34.1724    0.9154   -5.7965 C.3       11 UNK         0.1007 
     66 C          34.2989    1.6953   -4.4555 C.2       11 UNK         0.5703 
     67 N          35.4903    1.7299   -3.8733 N.am      11 UNK        -0.7361 
     68 O          33.3371    2.2531   -3.9296 O.2       11 UNK        -0.4986 
     69 C69        34.3093   -0.6214   -5.6136 C.3       12 UNK        -0.0947 
     70 S70        32.8484   -1.4046   -4.8513 S.3       12 UNK        -0.2240 
     71 C71        33.1479   -3.1527   -5.2443 C.3       12 UNK         0.0194 
     72 H72        30.6510    1.4608   -1.9965 H         1 UNK         0.0906 
     73 H73        31.3833    0.4095   -0.7826 H         1 UNK         0.0906 
     74 H74        31.9598    0.3686   -2.4507 H         1 UNK         0.0906 
     75 H75        30.3543   -1.5658   -0.4093 H         1 UNK         0.3140 
     76 H76        29.0263   -3.0649   -2.4586 H         1 UNK         0.1085 
     77 H77        28.8352   -3.5149    0.5669 H         1 UNK         0.0836 
     78 H78        28.5020   -4.6817   -0.6810 H         1 UNK         0.0836 
     79 H79        31.8481   -6.3232   -1.3490 H         1 UNK         0.0731 
     80 H80        30.1069   -6.4421   -1.3311 H         1 UNK         0.0731 
     81 H81        32.8449   -4.2950   -2.7863 H         1 UNK         0.1312 
     82 H82        30.8927   -3.8784   -6.5770 H         1 UNK         0.1406 
     83 H83        28.9840   -6.0613   -3.4168 H         1 UNK         0.1631 
     84 H84        28.8169   -4.9621   -7.0190 H         1 UNK         0.0717 
     85 H85        28.3309   -6.2807   -5.9813 H         1 UNK         0.0717 
     86 H86        27.6538   -2.0838   -4.5257 H         1 UNK         0.0934 
     87 H87        28.8744   -2.5474   -5.6548 H         1 UNK         0.0934 
     88 H88        27.3445   -2.1478   -7.5700 H         1 UNK         0.0739 
     89 H89        25.2905   -2.0155   -5.6238 H         1 UNK         0.3093 
     90 H90        22.8491   -0.2854   -7.6098 H         1 UNK         0.0818 
     91 H91        21.6278   -2.3805   -7.0873 H         1 UNK         0.0819 
     92 H92        22.8503   -2.6839   -8.3094 H         1 UNK         0.0819 
     93 H93        23.1331   -3.1886   -6.6494 H         1 UNK         0.0819 
     94 H94        22.8356   -1.3958   -4.9482 H         1 UNK         0.3041 
     95 H95        23.9225    1.5154   -3.2520 H         1 UNK         0.0784 
     96 H96        21.4964    1.9950   -3.6395 H         1 UNK         0.0793 
     97 H97        21.1044    0.3051   -3.3543 H         1 UNK         0.0793 
     98 H98        21.7647    1.2962   -2.0523 H         1 UNK         0.0793 
     99 H99        22.9785   -0.9258   -2.2072 H         1 UNK         0.3024 
    100 H100       24.7526   -2.2222   -1.0977 H         1 UNK         0.1171 
    101 H101       24.4554   -4.4490   -2.2385 H         1 UNK         0.0786 
    102 H102       23.2352   -3.3057   -2.7599 H         1 UNK         0.0786 
    103 H103       24.5961   -3.6690   -3.8113 H         1 UNK         0.0786 
    104 H104       26.8078   -3.4623   -2.7376 H         1 UNK         0.2977 
    105 H105       26.6146    0.2690   -5.0377 H         1 UNK         0.3127 
    106 H106       28.7626    2.0121   -5.4523 H         1 UNK         0.0770 
    107 H107       25.9012    2.6672   -4.5687 H         1 UNK         0.0814 
    108 H108       27.3122    3.6827   -4.3024 H         1 UNK         0.0814 
    109 H109       27.2037    2.1142   -3.5160 H         1 UNK         0.0814 
    110 H110       25.9813    1.5468   -7.5206 H         1 UNK         0.2983 
    111 H111       26.5648    3.9946   -9.1130 H         1 UNK         0.0947 
    112 H112       24.4817    3.3743  -10.3227 H         1 UNK         0.0806 
    113 H113       24.1826    3.5495   -8.6004 H         1 UNK         0.0806 
    114 H114       24.2930    1.9448   -9.3157 H         1 UNK         0.0806 
    115 H115       26.2593    0.4138   -9.4873 H         1 UNK         0.3000 
    116 H116       27.0493    0.4405  -12.2253 H         1 UNK         0.0850 
    117 H117       26.9325   -2.0404  -11.9919 H         1 UNK         0.0810 
    118 H118       25.5297   -1.2647  -11.2730 H         1 UNK         0.0810 
    119 H119       26.8169   -1.8852  -10.2435 H         1 UNK         0.0810 
    120 H120       28.8629   -0.4612   -9.2564 H         1 UNK         0.3040 
    121 H121       31.3230   -0.9846  -10.8627 H         1 UNK         0.0766 
    122 H122       30.6523   -2.7597   -9.2466 H         1 UNK         0.0812 
    123 H123       30.6999   -1.6009   -7.9207 H         1 UNK         0.0812 
    124 H124       32.1727   -2.0145   -8.7810 H         1 UNK         0.0812 
    125 H125       30.0378    0.8919   -8.1192 H         1 UNK         0.3205 
    126 H126       30.6210    2.7453   -7.0550 H         1 UNK         0.0754 
    127 H127       31.4651    4.6673   -8.3511 H         1 UNK         0.0769 
    128 H128       30.2775    3.7900   -9.2996 H         1 UNK         0.0769 
    129 H129       31.9969    3.6107   -9.6526 H         1 UNK         0.0769 
    130 H130       32.2485    0.5371   -6.5643 H         1 UNK         0.2981 
    131 H131       35.0166    1.2395   -6.4083 H         1 UNK         0.0541 
    132 H132       35.5929    2.2247   -3.0012 H         1 UNK         0.3459 
    133 H133       36.2889    1.2756   -4.2880 H         1 UNK         0.3459 
    134 H134       34.4685   -1.0811   -6.5903 H         1 UNK         0.0612 
    135 H135       35.1917   -0.8711   -5.0220 H         1 UNK         0.0612 
    136 H136       34.0868   -3.4726   -4.7899 H         1 UNK         0.0624 
    137 H137       33.2637   -3.2706   -6.3229 H         1 UNK         0.0624 
@<TRIPOS>BOND
     1    1    2 1    
     2    1   72 1    
     3    1   73 1    
     4    1   74 1    
     5    2    3 2    
     6    2    4 am   BACKBONE|DICT|INTERRES
     7    4    5 1    
     8    4   75 1    
     9    5    6 1    
    10    5   35 1    
    11    5   76 1    
    12    6    7 1    
    13    6   77 1    
    14    6   78 1    
    15    7    8 1    
    16    8    9 1    
    17    8   79 1    
    18    8   80 1    
    19    9   10 ar   
    20    9   14 ar   
    21   10   11 ar   
    22   10   81 1    
    23   11   12 ar   
    24   11   71 1    
    25   12   13 ar   
    26   12   82 1    
    27   13   14 ar   
    28   13   15 1    
    29   14   83 1    
    30   15   16 1    
    31   15   84 1    
    32   15   85 1    
    33   16   17 1    
    34   17   18 1    
    35   17   86 1    
    36   17   87 1    
    37   18   19 1    
    38   18   37 1    
    39   18   88 1    
    40   19   20 am   BACKBONE|DICT|INTERRES
    41   19   89 1    
    42   20   21 2    
    43   20   22 1    
    44   22   23 1    
    45   22   24 1    
    46   22   90 1    
    47   23   91 1    
    48   23   92 1    
    49   23   93 1    
    50   24   25 am   BACKBONE|DICT|INTERRES
    51   24   94 1    
    52   25   26 2    
    53   25   27 1    
    54   27   28 1    
    55   27   29 1    
    56   27   95 1    
    57   28   96 1    
    58   28   97 1    
    59   28   98 1    
    60   29   30 am   BACKBONE|DICT|INTERRES
    61   29   99 1    
    62   30   31 2    
    63   30   32 1    
    64   32   33 1    
    65   32   34 1    
    66   32  100 1    
    67   33  101 1    
    68   33  102 1    
    69   33  103 1    
    70   34   35 am   BACKBONE|DICT|INTERRES
    71   34  104 1    
    72   35   36 2    
    73   37   38 2    
    74   37   39 am   BACKBONE|DICT|INTERRES
    75   39   40 1    
    76   39  105 1    
    77   40   41 1    
    78   40   42 1    
    79   40  106 1    
    80   41  107 1    
    81   41  108 1    
    82   41  109 1    
    83   42   43 2    
    84   42   44 am   BACKBONE|DICT|INTERRES
    85   44   45 1    
    86   44  110 1    
    87   45   46 1    
    88   45   47 1    
    89   45  111 1    
    90   46  112 1    
    91   46  113 1    
    92   46  114 1    
    93   47   48 2    
    94   47   49 am   BACKBONE|DICT|INTERRES
    95   49   50 1    
    96   49  115 1    
    97   50   51 1    
    98   50   52 1    
    99   50  116 1    
   100   51  117 1    
   101   51  118 1    
   102   51  119 1    
   103   52   53 2    
   104   52   54 am   BACKBONE|DICT|INTERRES
   105   54   55 1    
   106   54  120 1    
   107   55   56 1    
   108   55   57 1    
   109   55  121 1    
   110   56  122 1    
   111   56  123 1    
   112   56  124 1    
   113   57   58 2    
   114   57   59 am   BACKBONE|DICT|INTERRES
   115   59   60 1    
   116   59  125 1    
   117   60   61 1    
   118   60   62 1    
   119   60  126 1    
   120   61  127 1    
   121   61  128 1    
   122   61  129 1    
   123   62   63 2    
   124   62   64 am   BACKBONE|DICT|INTERRES
   125   64   65 1    
   126   64  130 1    
   127   65   66 1    
   128   65   69 1    
   129   65  131 1    
   130   66   67 am   BACKBONE|DICT|INTERRES
   131   66   68 2    
   132   67  132 1    
   133   67  133 1    
   134   69   70 1    
   135   69  134 1    
   136   69  135 1    
   137   70   71 1    
   138   71  136 1    
   139   71  137 1    
@<TRIPOS>SUBSTRUCTURE
     1 UNK         1 GROUP             0       ****    0 ROOT    
