@<TRIPOS>MOLECULE
3R137
137   139    1
SMALL
USER_CHARGES


@<TRIPOS>ATOM
      1 CA         23.8520   -6.5591   -2.3160 C.3       0 UNK        -0.2020 
      2 C          25.0248   -5.5912   -2.3107 C.2       0 UNK         0.4855 
      3 O          25.3763   -5.0542   -3.3609 O.2       0 UNK        -0.5197 
      4 N          25.6224   -5.3498   -1.1343 N.am      1 UNK        -0.4892 
      5 CA         26.7775   -4.4640   -0.9225 C.3       1 UNK         0.0835 
      6 C6         28.0667   -5.0317   -1.5777 C.3       12 UNK        -0.0855 
      7 S7         29.5904   -4.5391   -0.7045 S.3       12 UNK        -0.2931 
      8 C8         30.7254   -4.1582   -2.0895 C.3       12 UNK         0.0378 
      9 C9         30.9242   -2.6750   -2.4175 C.ar      12 UNK        -0.0802 
     10 C10        31.6368   -2.3458   -3.5762 C.ar      12 UNK        -0.0944 
     11 C11        31.9205   -1.0136   -3.8918 C.ar      12 UNK        -0.0787 
     12 C12        31.4895    0.0013   -3.0345 C.ar      12 UNK        -0.0862 
     13 C13        30.7617   -0.3037   -1.8813 C.ar      12 UNK        -0.0733 
     14 C14        30.4805   -1.6408   -1.5808 C.ar      12 UNK        -0.0832 
     15 C15        30.3021    0.8068   -0.9418 C.3       12 UNK         0.0240 
     16 S16        29.2202    2.0301   -1.7546 S.3       12 UNK        -0.2522 
     17 C17        27.8855    0.9693   -2.3983 C.3       12 UNK        -0.0967 
     18 CA         28.0072    0.7566   -3.9302 C.3       5 UNK         0.0660 
     19 N          27.5856   -0.5925   -4.3309 N.am      5 UNK        -0.4015 
     20 C          27.6448   -1.0868   -5.5774 C.2       4 UNK         0.4946 
     21 O          28.0343   -0.4491   -6.5514 O.2       4 UNK        -0.5353 
     22 CA         27.1253   -2.5168   -5.7887 C.3       4 UNK         0.0277 
     23 CB         28.1431   -3.5480   -5.2771 C.3       4 UNK        -0.1981 
     24 N          25.8245   -2.7089   -5.1439 N.am      4 UNK        -0.4209 
     25 C          24.6962   -2.1059   -5.5510 C.2       3 UNK         0.4942 
     26 O          24.6056   -1.4493   -6.5883 O.2       3 UNK        -0.5208 
     27 CA         23.4733   -2.2032   -4.6243 C.3       3 UNK         0.0250 
     28 CB         22.6613   -3.4779   -4.9047 C.3       3 UNK        -0.1990 
     29 N          23.8407   -2.1361   -3.2073 N.am      3 UNK        -0.4232 
     30 C          24.3438   -1.0448   -2.6107 C.2       2 UNK         0.4993 
     31 O          24.5104    0.0318   -3.1830 O.2       2 UNK        -0.5286 
     32 CA         24.7677   -1.1829   -1.1385 C.3       2 UNK         0.0209 
     33 CB         23.5866   -0.8702   -0.2064 C.3       2 UNK        -0.1931 
     34 N          25.3141   -2.5039   -0.8122 N.am      2 UNK        -0.4546 
     35 C          26.4450   -3.0089   -1.3279 C.2       1 UNK         0.5154 
     36 O          27.1495   -2.3959   -2.1313 O.2       1 UNK        -0.5181 
     37 C          27.3012    1.8867   -4.7118 C.2       5 UNK         0.5014 
     38 O          27.9331    2.8952   -5.0290 O.2       5 UNK        -0.5248 
     39 N          26.0165    1.6872   -5.0402 N.am      6 UNK        -0.4434 
     40 CA         25.2169    2.5704   -5.8934 C.3       6 UNK         0.0363 
     41 CB         23.7520    2.1063   -5.8608 C.3       6 UNK        -0.1936 
     42 C          25.7184    2.6692   -7.3492 C.2       6 UNK         0.5081 
     43 O          25.3994    3.6499   -8.0217 O.2       6 UNK        -0.5248 
     44 N          26.4987    1.6833   -7.8100 N.am      7 UNK        -0.4718 
     45 CA         27.1453    1.6440   -9.1196 C.3       7 UNK         0.0273 
     46 CB         26.7567    0.3310   -9.8233 C.3       7 UNK        -0.1935 
     47 C          28.6642    1.7873   -8.9257 C.2       7 UNK         0.5018 
     48 O          29.4330    0.9419   -9.3889 O.2       7 UNK        -0.5186 
     49 N          29.0665    2.8675   -8.2388 N.am      8 UNK        -0.4240 
     50 CA         30.4313    3.1675   -7.7834 C.3       8 UNK         0.0235 
     51 CB         30.4411    4.5489   -7.1085 C.3       8 UNK        -0.2000 
     52 C          31.5343    3.0970   -8.8568 C.2       8 UNK         0.4941 
     53 O          32.6802    2.7940   -8.5243 O.2       8 UNK        -0.5273 
     54 N          31.1782    3.3783  -10.1166 N.am      9 UNK        -0.4262 
     55 CA         32.0739    3.2845  -11.2700 C.3       9 UNK         0.0264 
     56 CB         31.5412    4.1988  -12.3861 C.3       9 UNK        -0.1955 
     57 C          32.2535    1.8479  -11.7987 C.2       9 UNK         0.5031 
     58 O          33.2151    1.6092  -12.5315 O.2       9 UNK        -0.5390 
     59 N          31.3312    0.9334  -11.4660 N.am      10 UNK        -0.4204 
     60 CA         31.2942   -0.4358  -11.9836 C.3       10 UNK         0.0237 
     61 CB         29.8582   -0.7727  -12.4185 C.3       10 UNK        -0.1985 
     62 C          31.7902   -1.4689  -10.9622 C.2       10 UNK         0.4970 
     63 O          32.3720   -2.4717  -11.3795 O.2       10 UNK        -0.4914 
     64 N          31.5402   -1.2405   -9.6645 N.am      11 UNK        -0.4285 
     65 CA         31.9528   -2.1432   -8.5771 C.3       11 UNK         0.1007 
     66 C          33.4946   -2.2777   -8.4045 C.2       11 UNK         0.5703 
     67 N          33.9519   -3.3527   -7.7752 N.am      11 UNK        -0.7361 
     68 O          34.2753   -1.4168   -8.8069 O.2       11 UNK        -0.4986 
     69 C69        31.2255   -1.8182   -7.2452 C.3       12 UNK        -0.0947 
     70 S70        31.6521   -0.1953   -6.5290 S.3       12 UNK        -0.2240 
     71 C71        32.7244   -0.6631   -5.1356 C.3       12 UNK         0.0194 
     72 H72        22.9484   -6.0525   -2.6539 H         1 UNK         0.0906 
     73 H73        24.0536   -7.3853   -2.9972 H         1 UNK         0.0906 
     74 H74        23.6596   -6.9744   -1.3270 H         1 UNK         0.0906 
     75 H75        25.2787   -5.8164   -0.3053 H         1 UNK         0.3140 
     76 H76        26.9343   -4.4431    0.1575 H         1 UNK         0.1085 
     77 H77        28.0440   -6.1222   -1.5476 H         1 UNK         0.0836 
     78 H78        28.1148   -4.7805   -2.6356 H         1 UNK         0.0836 
     79 H79        30.4044   -4.6924   -2.9849 H         1 UNK         0.0731 
     80 H80        31.7018   -4.5706   -1.8318 H         1 UNK         0.0731 
     81 H81        31.9932   -3.1339   -4.2252 H         1 UNK         0.1312 
     82 H82        31.7133    1.0332   -3.2689 H         1 UNK         0.1406 
     83 H83        29.9298   -1.8677   -0.6796 H         1 UNK         0.1631 
     84 H84        31.1790    1.3211   -0.5467 H         1 UNK         0.0717 
     85 H85        29.7753    0.3942   -0.0799 H         1 UNK         0.0717 
     86 H86        27.9353    0.0183   -1.8694 H         1 UNK         0.0934 
     87 H87        26.9196    1.3980   -2.1231 H         1 UNK         0.0934 
     88 H88        29.0611    0.8069   -4.2103 H         1 UNK         0.0739 
     89 H89        27.2968   -1.2166   -3.5806 H         1 UNK         0.3093 
     90 H90        26.9919   -2.6771   -6.8609 H         1 UNK         0.0818 
     91 H91        28.4799   -3.3128   -4.2684 H         1 UNK         0.0819 
     92 H92        27.7302   -4.5569   -5.2740 H         1 UNK         0.0819 
     93 H93        29.0298   -3.5594   -5.9110 H         1 UNK         0.0819 
     94 H94        25.7976   -3.2921   -4.3127 H         1 UNK         0.3041 
     95 H95        22.8324   -1.3448   -4.8386 H         1 UNK         0.0784 
     96 H96        22.3204   -3.4973   -5.9407 H         1 UNK         0.0793 
     97 H97        23.2483   -4.3816   -4.7429 H         1 UNK         0.0793 
     98 H98        21.7753   -3.5332   -4.2722 H         1 UNK         0.0793 
     99 H99        23.7730   -2.9902   -2.6744 H         1 UNK         0.3024 
    100 H100       25.5507   -0.4441   -0.9557 H         1 UNK         0.1171 
    101 H101       23.8943   -0.8744    0.8395 H         1 UNK         0.0786 
    102 H102       23.1759    0.1185   -0.4168 H         1 UNK         0.0786 
    103 H103       22.7762   -1.5910   -0.3221 H         1 UNK         0.0786 
    104 H104       24.7771   -3.0770   -0.1770 H         1 UNK         0.2977 
    105 H105       25.5427    0.8747   -4.6550 H         1 UNK         0.3127 
    106 H106       25.2670    3.5737   -5.4657 H         1 UNK         0.0770 
    107 H107       23.6409    1.0997   -6.2652 H         1 UNK         0.0814 
    108 H108       23.1184    2.7680   -6.4528 H         1 UNK         0.0814 
    109 H109       23.3581    2.1040   -4.8442 H         1 UNK         0.0814 
    110 H110       26.7854    0.9417   -7.1751 H         1 UNK         0.2983 
    111 H111       26.8147    2.4763   -9.7442 H         1 UNK         0.0947 
    112 H112       27.1656    0.2946  -10.8330 H         1 UNK         0.0806 
    113 H113       25.6745    0.2330   -9.9088 H         1 UNK         0.0806 
    114 H114       27.1289   -0.5408   -9.2828 H         1 UNK         0.0806 
    115 H115       28.3443    3.4780   -7.8834 H         1 UNK         0.3000 
    116 H116       30.6735    2.4257   -7.0226 H         1 UNK         0.0850 
    117 H117       30.1519    5.3393   -7.8021 H         1 UNK         0.0810 
    118 H118       31.4352    4.7928   -6.7308 H         1 UNK         0.0810 
    119 H119       29.7597    4.5805   -6.2580 H         1 UNK         0.0810 
    120 H120       30.2178    3.6314  -10.2983 H         1 UNK         0.3040 
    121 H121       33.0611    3.6494  -10.9778 H         1 UNK         0.0766 
    122 H122       31.4723    5.2344  -12.0524 H         1 UNK         0.0812 
    123 H123       30.5530    3.8878  -12.7271 H         1 UNK         0.0812 
    124 H124       32.2038    4.1838  -13.2527 H         1 UNK         0.0812 
    125 H125       30.6081    1.1742  -10.7910 H         1 UNK         0.3205 
    126 H126       31.9318   -0.5178  -12.8665 H         1 UNK         0.0754 
    127 H127       29.8106   -1.7648  -12.8694 H         1 UNK         0.0769 
    128 H128       29.4893   -0.0620  -13.1581 H         1 UNK         0.0769 
    129 H129       29.1699   -0.7673  -11.5732 H         1 UNK         0.0769 
    130 H130       31.0273   -0.4106   -9.3899 H         1 UNK         0.2981 
    131 H131       31.6042   -3.1332   -8.8780 H         1 UNK         0.0541 
    132 H132       33.3274   -4.0692   -7.4407 H         1 UNK         0.3459 
    133 H133       34.9461   -3.4559   -7.6461 H         1 UNK         0.3459 
    134 H134       30.1488   -1.8280   -7.4158 H         1 UNK         0.0612 
    135 H135       31.4078   -2.6029   -6.5109 H         1 UNK         0.0612 
    136 H136       33.3865    0.1752   -4.9146 H         1 UNK         0.0624 
    137 H137       33.3737   -1.4907   -5.4242 H         1 UNK         0.0624 
@<TRIPOS>BOND
     1    1    2 1    
     2    1   72 1    
     3    1   73 1    
     4    1   74 1    
     5    2    3 2    
     6    2    4 am   BACKBONE|DICT|INTERRES
     7    4    5 1    
     8    4   75 1    
     9    5    6 1    
    10    5   35 1    
    11    5   76 1    
    12    6    7 1    
    13    6   77 1    
    14    6   78 1    
    15    7    8 1    
    16    8    9 1    
    17    8   79 1    
    18    8   80 1    
    19    9   10 ar   
    20    9   14 ar   
    21   10   11 ar   
    22   10   81 1    
    23   11   12 ar   
    24   11   71 1    
    25   12   13 ar   
    26   12   82 1    
    27   13   14 ar   
    28   13   15 1    
    29   14   83 1    
    30   15   16 1    
    31   15   84 1    
    32   15   85 1    
    33   16   17 1    
    34   17   18 1    
    35   17   86 1    
    36   17   87 1    
    37   18   19 1    
    38   18   37 1    
    39   18   88 1    
    40   19   20 am   BACKBONE|DICT|INTERRES
    41   19   89 1    
    42   20   21 2    
    43   20   22 1    
    44   22   23 1    
    45   22   24 1    
    46   22   90 1    
    47   23   91 1    
    48   23   92 1    
    49   23   93 1    
    50   24   25 am   BACKBONE|DICT|INTERRES
    51   24   94 1    
    52   25   26 2    
    53   25   27 1    
    54   27   28 1    
    55   27   29 1    
    56   27   95 1    
    57   28   96 1    
    58   28   97 1    
    59   28   98 1    
    60   29   30 am   BACKBONE|DICT|INTERRES
    61   29   99 1    
    62   30   31 2    
    63   30   32 1    
    64   32   33 1    
    65   32   34 1    
    66   32  100 1    
    67   33  101 1    
    68   33  102 1    
    69   33  103 1    
    70   34   35 am   BACKBONE|DICT|INTERRES
    71   34  104 1    
    72   35   36 2    
    73   37   38 2    
    74   37   39 am   BACKBONE|DICT|INTERRES
    75   39   40 1    
    76   39  105 1    
    77   40   41 1    
    78   40   42 1    
    79   40  106 1    
    80   41  107 1    
    81   41  108 1    
    82   41  109 1    
    83   42   43 2    
    84   42   44 am   BACKBONE|DICT|INTERRES
    85   44   45 1    
    86   44  110 1    
    87   45   46 1    
    88   45   47 1    
    89   45  111 1    
    90   46  112 1    
    91   46  113 1    
    92   46  114 1    
    93   47   48 2    
    94   47   49 am   BACKBONE|DICT|INTERRES
    95   49   50 1    
    96   49  115 1    
    97   50   51 1    
    98   50   52 1    
    99   50  116 1    
   100   51  117 1    
   101   51  118 1    
   102   51  119 1    
   103   52   53 2    
   104   52   54 am   BACKBONE|DICT|INTERRES
   105   54   55 1    
   106   54  120 1    
   107   55   56 1    
   108   55   57 1    
   109   55  121 1    
   110   56  122 1    
   111   56  123 1    
   112   56  124 1    
   113   57   58 2    
   114   57   59 am   BACKBONE|DICT|INTERRES
   115   59   60 1    
   116   59  125 1    
   117   60   61 1    
   118   60   62 1    
   119   60  126 1    
   120   61  127 1    
   121   61  128 1    
   122   61  129 1    
   123   62   63 2    
   124   62   64 am   BACKBONE|DICT|INTERRES
   125   64   65 1    
   126   64  130 1    
   127   65   66 1    
   128   65   69 1    
   129   65  131 1    
   130   66   67 am   BACKBONE|DICT|INTERRES
   131   66   68 2    
   132   67  132 1    
   133   67  133 1    
   134   69   70 1    
   135   69  134 1    
   136   69  135 1    
   137   70   71 1    
   138   71  136 1    
   139   71  137 1    
@<TRIPOS>SUBSTRUCTURE
     1 UNK         1 GROUP             0       ****    0 ROOT    
