@<TRIPOS>MOLECULE
3R137
137   139    1
SMALL
USER_CHARGES


@<TRIPOS>ATOM
      1 CA         30.8585   -0.2231    1.5344 C.3       0 UNK        -0.2020 
      2 C          30.4472   -1.3248    0.5693 C.2       0 UNK         0.4855 
      3 O          31.3062   -1.9176   -0.0805 O.2       0 UNK        -0.5197 
      4 N          29.1433   -1.5983    0.4744 N.am      1 UNK        -0.4892 
      5 CA         28.5071   -2.5717   -0.4125 C.3       1 UNK         0.0835 
      6 C6         28.7530   -4.0352    0.0514 C.3       12 UNK        -0.0855 
      7 S7         28.2942   -5.3204   -1.1681 S.3       12 UNK        -0.2931 
      8 C8         29.8600   -5.6403   -2.0476 C.3       12 UNK         0.0378 
      9 C9         30.0087   -4.7182   -3.2478 C.ar      12 UNK        -0.0802 
     10 C10        30.6826   -3.5018   -3.1222 C.ar      12 UNK        -0.0944 
     11 C11        30.7500   -2.6072   -4.1931 C.ar      12 UNK        -0.0787 
     12 C12        30.1646   -2.9624   -5.4132 C.ar      12 UNK        -0.0862 
     13 C13        29.5250   -4.1959   -5.5688 C.ar      12 UNK        -0.0733 
     14 C14        29.4497   -5.0705   -4.4801 C.ar      12 UNK        -0.0832 
     15 C15        28.9248   -4.5743   -6.9180 C.3       12 UNK         0.0240 
     16 S16        27.1613   -5.0373   -6.8411 S.3       12 UNK        -0.2522 
     17 C17        26.3870   -3.6198   -5.9946 C.3       12 UNK        -0.0967 
     18 CA         26.0202   -2.4534   -6.9486 C.3       5 UNK         0.0660 
     19 N          24.8054   -1.7613   -6.5208 N.am      5 UNK        -0.4015 
     20 C          24.0283   -1.0166   -7.3193 C.2       4 UNK         0.4946 
     21 O          24.1945   -0.9085   -8.5343 O.2       4 UNK        -0.5353 
     22 CA         22.8724   -0.2506   -6.6502 C.3       4 UNK         0.0277 
     23 CB         21.5732   -1.0692   -6.7209 C.3       4 UNK        -0.1981 
     24 N          23.1437    0.1111   -5.2553 N.am      4 UNK        -0.4209 
     25 C          24.0755    0.9949   -4.8711 C.2       3 UNK         0.4942 
     26 O          24.7921    1.6195   -5.6523 O.2       3 UNK        -0.5208 
     27 CA         24.2789    1.1692   -3.3567 C.3       3 UNK         0.0250 
     28 CB         23.2489    2.1557   -2.7836 C.3       3 UNK        -0.1990 
     29 N          24.2414   -0.0855   -2.5929 N.am      3 UNK        -0.4232 
     30 C          25.0475   -1.1352   -2.8042 C.2       2 UNK         0.4993 
     31 O          25.8428   -1.2125   -3.7439 O.2       2 UNK        -0.5286 
     32 CA         24.9409   -2.3130   -1.8273 C.3       2 UNK         0.0209 
     33 CB         24.1854   -3.4870   -2.4691 C.3       2 UNK        -0.1931 
     34 N          26.2893   -2.7460   -1.4614 N.am      2 UNK        -0.4546 
     35 C          27.0186   -2.1770   -0.4960 C.2       1 UNK         0.5154 
     36 O          26.5614   -1.3442    0.2956 O.2       1 UNK        -0.5181 
     37 C          27.1685   -1.4389   -7.0815 C.2       5 UNK         0.5014 
     38 O          27.8185   -1.3926   -8.1241 O.2       5 UNK        -0.5248 
     39 N          27.3679   -0.6208   -6.0362 N.am      6 UNK        -0.4434 
     40 CA         28.3925    0.4222   -5.9482 C.3       6 UNK         0.0363 
     41 CB         28.2977    1.1185   -4.5813 C.3       6 UNK        -0.1936 
     42 C          28.3198    1.4499   -7.0877 C.2       6 UNK         0.5081 
     43 O          29.3528    1.7809   -7.6671 O.2       6 UNK        -0.5248 
     44 N          27.1007    1.8940   -7.4233 N.am      7 UNK        -0.4718 
     45 CA         26.8198    2.8167   -8.5279 C.3       7 UNK         0.0273 
     46 CB         25.3511    3.2628   -8.4434 C.3       7 UNK        -0.1935 
     47 C          27.1220    2.2452   -9.9269 C.2       7 UNK         0.5018 
     48 O          27.3038    3.0259  -10.8618 O.2       7 UNK        -0.5186 
     49 N          27.1654    0.9127  -10.0526 N.am      8 UNK        -0.4240 
     50 CA         27.4646    0.1923  -11.2912 C.3       8 UNK         0.0235 
     51 CB         26.4848   -0.9890  -11.4099 C.3       8 UNK        -0.2000 
     52 C          28.9230   -0.3014  -11.3482 C.2       8 UNK         0.4941 
     53 O          29.2892   -0.9525  -12.3286 O.2       8 UNK        -0.5273 
     54 N          29.7217   -0.0152  -10.3127 N.am      9 UNK        -0.4262 
     55 CA         31.0906   -0.4929  -10.1358 C.3       9 UNK         0.0264 
     56 CB         31.1266   -1.3482   -8.8558 C.3       9 UNK        -0.1955 
     57 C          32.0680    0.6865  -10.0354 C.2       9 UNK         0.5031 
     58 O          31.6601    1.8498  -10.0602 O.2       9 UNK        -0.5390 
     59 N          33.3571    0.3570   -9.8848 N.am      10 UNK        -0.4204 
     60 CA         34.4550    1.3030   -9.6550 C.3       10 UNK         0.0237 
     61 CB         35.7788    0.6242  -10.0510 C.3       10 UNK        -0.1985 
     62 C          34.5229    1.8468   -8.2104 C.2       10 UNK         0.4970 
     63 O          35.4541    2.5908   -7.8991 O.2       10 UNK        -0.4914 
     64 N          33.5662    1.4639   -7.3531 N.am      11 UNK        -0.4285 
     65 CA         33.4537    1.8743   -5.9446 C.3       11 UNK         0.1007 
     66 C          33.2423    3.4009   -5.7227 C.2       11 UNK         0.5703 
     67 N          32.7272    4.1456   -6.6944 N.am      11 UNK        -0.7361 
     68 O          33.5522    3.9139   -4.6501 O.2       11 UNK        -0.4986 
     69 C69        32.3444    1.0808   -5.2055 C.3       12 UNK        -0.0947 
     70 S70        32.4983   -0.7318   -5.3424 S.3       12 UNK        -0.2240 
     71 C71        31.3837   -1.2348   -3.9906 C.3       12 UNK         0.0194 
     72 H72        31.3765    0.5712    0.9976 H         1 UNK         0.0906 
     73 H73        30.0003    0.2152    2.0436 H         1 UNK         0.0906 
     74 H74        31.5347   -0.6207    2.2907 H         1 UNK         0.0906 
     75 H75        28.4616   -1.0554    0.9949 H         1 UNK         0.3140 
     76 H76        28.9247   -2.4274   -1.4090 H         1 UNK         0.1085 
     77 H77        28.2075   -4.2315    0.9763 H         1 UNK         0.0836 
     78 H78        29.8042   -4.1757    0.3052 H         1 UNK         0.0836 
     79 H79        30.7092   -5.5373   -1.3704 H         1 UNK         0.0731 
     80 H80        29.8667   -6.6787   -2.3825 H         1 UNK         0.0731 
     81 H81        31.1218   -3.2361   -2.1722 H         1 UNK         0.1312 
     82 H82        30.2036   -2.2747   -6.2449 H         1 UNK         0.1406 
     83 H83        28.9357   -6.0163   -4.5875 H         1 UNK         0.1631 
     84 H84        29.4864   -5.4161   -7.3246 H         1 UNK         0.0717 
     85 H85        29.0393   -3.7627   -7.6367 H         1 UNK         0.0717 
     86 H86        25.4756   -4.0231   -5.5525 H         1 UNK         0.0934 
     87 H87        26.9918   -3.2958   -5.1453 H         1 UNK         0.0934 
     88 H88        25.8263   -2.8663   -7.9415 H         1 UNK         0.0739 
     89 H89        24.6411   -1.7308   -5.5239 H         1 UNK         0.3093 
     90 H90        22.7261    0.6738   -7.2135 H         1 UNK         0.0818 
     91 H91        20.7266   -0.5058   -6.3279 H         1 UNK         0.0819 
     92 H92        21.3338   -1.3310   -7.7527 H         1 UNK         0.0819 
     93 H93        21.6491   -2.0004   -6.1581 H         1 UNK         0.0819 
     94 H94        22.5979   -0.3530   -4.5437 H         1 UNK         0.3041 
     95 H95        25.2715    1.6005   -3.2137 H         1 UNK         0.0784 
     96 H96        23.2707    3.1018   -3.3269 H         1 UNK         0.0793 
     97 H97        22.2324    1.7657   -2.8490 H         1 UNK         0.0793 
     98 H98        23.4554    2.3823   -1.7374 H         1 UNK         0.0793 
     99 H99        23.6078   -0.1107   -1.8065 H         1 UNK         0.3024 
    100 H100       24.3991   -1.9978   -0.9323 H         1 UNK         0.1171 
    101 H101       23.1817   -3.1889   -2.7753 H         1 UNK         0.0786 
    102 H102       24.0769   -4.3146   -1.7677 H         1 UNK         0.0786 
    103 H103       24.6992   -3.8668   -3.3515 H         1 UNK         0.0786 
    104 H104       26.7356   -3.4142   -2.0749 H         1 UNK         0.2977 
    105 H105       26.7881   -0.7522   -5.2077 H         1 UNK         0.3127 
    106 H106       29.3614   -0.0728   -6.0165 H         1 UNK         0.0770 
    107 H107       27.3627    1.6688   -4.4757 H         1 UNK         0.0814 
    108 H108       29.1117    1.8321   -4.4494 H         1 UNK         0.0814 
    109 H109       28.3535    0.4017   -3.7618 H         1 UNK         0.0814 
    110 H110       26.3045    1.6066   -6.8581 H         1 UNK         0.2983 
    111 H111       27.4551    3.6952   -8.3961 H         1 UNK         0.0947 
    112 H112       25.1067    3.9664   -9.2404 H         1 UNK         0.0806 
    113 H113       25.1422    3.7614   -7.4967 H         1 UNK         0.0806 
    114 H114       24.6693    2.4157   -8.5324 H         1 UNK         0.0806 
    115 H115       27.0540    0.3390   -9.2241 H         1 UNK         0.3000 
    116 H116       27.3125    0.8461  -12.1525 H         1 UNK         0.0850 
    117 H117       26.6279   -1.5277  -12.3474 H         1 UNK         0.0810 
    118 H118       25.4492   -0.6491  -11.3866 H         1 UNK         0.0810 
    119 H119       26.6176   -1.7048  -10.5975 H         1 UNK         0.0810 
    120 H120       29.3781    0.5930   -9.5783 H         1 UNK         0.3040 
    121 H121       31.3996   -1.1083  -10.9831 H         1 UNK         0.0766 
    122 H122       32.1114   -1.7795   -8.6744 H         1 UNK         0.0812 
    123 H123       30.4242   -2.1788   -8.9238 H         1 UNK         0.0812 
    124 H124       30.8556   -0.7592   -7.9792 H         1 UNK         0.0812 
    125 H125       33.6072   -0.6220   -9.8790 H         1 UNK         0.3205 
    126 H126       34.3085    2.1647  -10.3098 H         1 UNK         0.0754 
    127 H127       36.6182    1.3155   -9.9629 H         1 UNK         0.0769 
    128 H128       35.7558    0.2819  -11.0859 H         1 UNK         0.0769 
    129 H129       35.9973   -0.2356   -9.4163 H         1 UNK         0.0769 
    130 H130       32.8343    0.8587   -7.6893 H         1 UNK         0.2981 
    131 H131       34.4063    1.6261   -5.4729 H         1 UNK         0.0541 
    132 H132       32.4533    3.7246   -7.5686 H         1 UNK         0.3459 
    133 H133       32.5960    5.1331   -6.5445 H         1 UNK         0.3459 
    134 H134       31.3630    1.3621   -5.5908 H         1 UNK         0.0612 
    135 H135       32.3444    1.3405   -4.1448 H         1 UNK         0.0612 
    136 H136       31.9447   -1.2011   -3.0551 H         1 UNK         0.0624 
    137 H137       30.5798   -0.5072   -3.8897 H         1 UNK         0.0624 
@<TRIPOS>BOND
     1    1    2 1    
     2    1   72 1    
     3    1   73 1    
     4    1   74 1    
     5    2    3 2    
     6    2    4 am   BACKBONE|DICT|INTERRES
     7    4    5 1    
     8    4   75 1    
     9    5    6 1    
    10    5   35 1    
    11    5   76 1    
    12    6    7 1    
    13    6   77 1    
    14    6   78 1    
    15    7    8 1    
    16    8    9 1    
    17    8   79 1    
    18    8   80 1    
    19    9   10 ar   
    20    9   14 ar   
    21   10   11 ar   
    22   10   81 1    
    23   11   12 ar   
    24   11   71 1    
    25   12   13 ar   
    26   12   82 1    
    27   13   14 ar   
    28   13   15 1    
    29   14   83 1    
    30   15   16 1    
    31   15   84 1    
    32   15   85 1    
    33   16   17 1    
    34   17   18 1    
    35   17   86 1    
    36   17   87 1    
    37   18   19 1    
    38   18   37 1    
    39   18   88 1    
    40   19   20 am   BACKBONE|DICT|INTERRES
    41   19   89 1    
    42   20   21 2    
    43   20   22 1    
    44   22   23 1    
    45   22   24 1    
    46   22   90 1    
    47   23   91 1    
    48   23   92 1    
    49   23   93 1    
    50   24   25 am   BACKBONE|DICT|INTERRES
    51   24   94 1    
    52   25   26 2    
    53   25   27 1    
    54   27   28 1    
    55   27   29 1    
    56   27   95 1    
    57   28   96 1    
    58   28   97 1    
    59   28   98 1    
    60   29   30 am   BACKBONE|DICT|INTERRES
    61   29   99 1    
    62   30   31 2    
    63   30   32 1    
    64   32   33 1    
    65   32   34 1    
    66   32  100 1    
    67   33  101 1    
    68   33  102 1    
    69   33  103 1    
    70   34   35 am   BACKBONE|DICT|INTERRES
    71   34  104 1    
    72   35   36 2    
    73   37   38 2    
    74   37   39 am   BACKBONE|DICT|INTERRES
    75   39   40 1    
    76   39  105 1    
    77   40   41 1    
    78   40   42 1    
    79   40  106 1    
    80   41  107 1    
    81   41  108 1    
    82   41  109 1    
    83   42   43 2    
    84   42   44 am   BACKBONE|DICT|INTERRES
    85   44   45 1    
    86   44  110 1    
    87   45   46 1    
    88   45   47 1    
    89   45  111 1    
    90   46  112 1    
    91   46  113 1    
    92   46  114 1    
    93   47   48 2    
    94   47   49 am   BACKBONE|DICT|INTERRES
    95   49   50 1    
    96   49  115 1    
    97   50   51 1    
    98   50   52 1    
    99   50  116 1    
   100   51  117 1    
   101   51  118 1    
   102   51  119 1    
   103   52   53 2    
   104   52   54 am   BACKBONE|DICT|INTERRES
   105   54   55 1    
   106   54  120 1    
   107   55   56 1    
   108   55   57 1    
   109   55  121 1    
   110   56  122 1    
   111   56  123 1    
   112   56  124 1    
   113   57   58 2    
   114   57   59 am   BACKBONE|DICT|INTERRES
   115   59   60 1    
   116   59  125 1    
   117   60   61 1    
   118   60   62 1    
   119   60  126 1    
   120   61  127 1    
   121   61  128 1    
   122   61  129 1    
   123   62   63 2    
   124   62   64 am   BACKBONE|DICT|INTERRES
   125   64   65 1    
   126   64  130 1    
   127   65   66 1    
   128   65   69 1    
   129   65  131 1    
   130   66   67 am   BACKBONE|DICT|INTERRES
   131   66   68 2    
   132   67  132 1    
   133   67  133 1    
   134   69   70 1    
   135   69  134 1    
   136   69  135 1    
   137   70   71 1    
   138   71  136 1    
   139   71  137 1    
@<TRIPOS>SUBSTRUCTURE
     1 UNK         1 GROUP             0       ****    0 ROOT    
