@<TRIPOS>MOLECULE
3R137
137   139    1
SMALL
USER_CHARGES


@<TRIPOS>ATOM
      1 CA         25.4515   -5.3325   -4.2282 C.3       0 UNK        -0.2020 
      2 C          25.9667   -4.1755   -3.3872 C.2       0 UNK         0.4855 
      3 O          25.9379   -3.0317   -3.8414 O.2       0 UNK        -0.5197 
      4 N          26.4354   -4.4591   -2.1628 N.am      1 UNK        -0.4892 
      5 CA         26.9847   -3.4872   -1.1996 C.3       1 UNK         0.0835 
      6 C6         28.2552   -2.7643   -1.7441 C.3       12 UNK        -0.0855 
      7 S7         29.6475   -2.7856   -0.5633 S.3       12 UNK        -0.2931 
      8 C8         30.5965   -4.2470   -1.1068 C.3       12 UNK         0.0378 
      9 C9         31.1471   -4.0842   -2.5171 C.ar      12 UNK        -0.0802 
     10 C10        32.2423   -3.2481   -2.7554 C.ar      12 UNK        -0.0944 
     11 C11        32.7168   -3.0574   -4.0568 C.ar      12 UNK        -0.0787 
     12 C12        32.1027   -3.7258   -5.1185 C.ar      12 UNK        -0.0862 
     13 C13        31.0038   -4.5585   -4.8938 C.ar      12 UNK        -0.0733 
     14 C14        30.5414   -4.7484   -3.5889 C.ar      12 UNK        -0.0832 
     15 C15        30.2867   -5.2139   -6.0658 C.3       12 UNK         0.0240 
     16 S16        29.5601   -3.9841   -7.1996 S.3       12 UNK        -0.2522 
     17 C17        28.5170   -3.0023   -6.0719 C.3       12 UNK        -0.0967 
     18 CA         27.7445   -1.8802   -6.8105 C.3       5 UNK         0.0660 
     19 N          26.4030   -1.6847   -6.2469 N.am      5 UNK        -0.4015 
     20 C          25.4075   -1.0632   -6.8914 C.2       4 UNK         0.4946 
     21 O          25.5276   -0.5751   -8.0146 O.2       4 UNK        -0.5353 
     22 CA         24.0585   -0.9392   -6.1616 C.3       4 UNK         0.0277 
     23 CB         23.2871   -2.2675   -6.2171 C.3       4 UNK        -0.1981 
     24 N          24.1392   -0.4777   -4.7710 N.am      4 UNK        -0.4209 
     25 C          24.7556    0.6294   -4.3398 C.2       3 UNK         0.4942 
     26 O          25.4423    1.3449   -5.0665 O.2       3 UNK        -0.5208 
     27 CA         24.5936    1.0398   -2.8632 C.3       3 UNK         0.0250 
     28 CB         23.4971    2.1127   -2.7208 C.3       3 UNK        -0.1990 
     29 N          24.3925   -0.0509   -1.8981 N.am      3 UNK        -0.4232 
     30 C          23.3730   -0.9118   -1.7731 C.2       2 UNK         0.4993 
     31 O          22.4112   -0.9523   -2.5420 O.2       2 UNK        -0.5286 
     32 CA         23.4903   -1.9345   -0.6241 C.3       2 UNK         0.0209 
     33 CB         22.2187   -2.7879   -0.4582 C.3       2 UNK        -0.1931 
     34 N          24.6325   -2.8250   -0.8396 N.am      2 UNK        -0.4546 
     35 C          25.9208   -2.4957   -0.6659 C.2       1 UNK         0.5154 
     36 O          26.2679   -1.4335   -0.1444 O.2       1 UNK        -0.5181 
     37 C          28.5496   -0.5610   -6.8877 C.2       5 UNK         0.5014 
     38 O          29.3469   -0.3803   -7.8119 O.2       5 UNK        -0.5248 
     39 N          28.3004    0.3605   -5.9447 N.am      6 UNK        -0.4434 
     40 CA         28.8660    1.7112   -5.9503 C.3       6 UNK         0.0363 
     41 CB         28.7320    2.3478   -4.5582 C.3       6 UNK        -0.1936 
     42 C          28.2164    2.5889   -7.0325 C.2       6 UNK         0.5081 
     43 O          28.9268    3.3119   -7.7281 O.2       6 UNK        -0.5248 
     44 N          26.8919    2.4697   -7.2062 N.am      7 UNK        -0.4718 
     45 CA         26.1258    3.1043   -8.2853 C.3       7 UNK         0.0273 
     46 CB         24.6225    2.9016   -8.0397 C.3       7 UNK        -0.1935 
     47 C          26.5304    2.5981   -9.6825 C.2       7 UNK         0.5018 
     48 O          26.5603    3.3876  -10.6267 O.2       7 UNK        -0.5186 
     49 N          26.8913    1.3100   -9.7759 N.am      8 UNK        -0.4240 
     50 CA         27.5023    0.6809  -10.9518 C.3       8 UNK         0.0235 
     51 CB         27.3666   -0.8465  -10.8319 C.3       8 UNK        -0.2000 
     52 C          28.9771    1.0785  -11.1807 C.2       8 UNK         0.4941 
     53 O          29.5442    0.6781  -12.1982 O.2       8 UNK        -0.5273 
     54 N          29.5680    1.8495  -10.2544 N.am      9 UNK        -0.4262 
     55 CA         30.9264    2.3984  -10.2719 C.3       9 UNK         0.0264 
     56 CB         31.1177    3.3715  -11.4558 C.3       9 UNK        -0.1955 
     57 C          32.0328    1.3328  -10.1770 C.2       9 UNK         0.5031 
     58 O          33.1063    1.5227  -10.7533 O.2       9 UNK        -0.5390 
     59 N          31.7860    0.2489   -9.4244 N.am      10 UNK        -0.4204 
     60 CA         32.8043   -0.7629   -9.1146 C.3       10 UNK         0.0237 
     61 CB         32.1220   -2.0309   -8.5884 C.3       10 UNK        -0.1985 
     62 C          33.8541   -0.2620   -8.1041 C.2       10 UNK         0.4970 
     63 O          34.9894   -0.7382   -8.1255 O.2       10 UNK        -0.4914 
     64 N          33.4585    0.6918   -7.2565 N.am      11 UNK        -0.4285 
     65 CA         34.2790    1.3844   -6.2596 C.3       11 UNK         0.1007 
     66 C          33.5874    2.7020   -5.8176 C.2       11 UNK         0.5703 
     67 N          34.2880    3.5595   -5.0878 N.am      11 UNK        -0.7361 
     68 O          32.4264    2.9599   -6.1341 O.2       11 UNK        -0.4986 
     69 C69        34.7018    0.4806   -5.0645 C.3       12 UNK        -0.0947 
     70 S70        33.3057   -0.3756   -4.2556 S.3       12 UNK        -0.2240 
     71 C71        33.8683   -2.1040   -4.3265 C.3       12 UNK         0.0194 
     72 H72        25.9338   -5.3323   -5.2051 H         1 UNK         0.0906 
     73 H73        24.3770   -5.2352   -4.3798 H         1 UNK         0.0906 
     74 H74        25.6432   -6.2963   -3.7572 H         1 UNK         0.0906 
     75 H75        26.4219   -5.4185   -1.8418 H         1 UNK         0.3140 
     76 H76        27.2678   -4.0843   -0.3313 H         1 UNK         0.1085 
     77 H77        28.0511   -1.7264   -2.0147 H         1 UNK         0.0836 
     78 H78        28.5817   -3.2110   -2.6803 H         1 UNK         0.0836 
     79 H79        31.4231   -4.4092   -0.4134 H         1 UNK         0.0731 
     80 H80        29.9625   -5.1324   -1.0373 H         1 UNK         0.0731 
     81 H81        32.7044   -2.7198   -1.9324 H         1 UNK         0.1312 
     82 H82        32.4568   -3.5736   -6.1279 H         1 UNK         0.1406 
     83 H83        29.6858   -5.3856   -3.4099 H         1 UNK         0.1631 
     84 H84        29.4974   -5.8820   -5.7178 H         1 UNK         0.0717 
     85 H85        30.9939   -5.8328   -6.6194 H         1 UNK         0.0717 
     86 H86        27.8234   -3.7091   -5.6187 H         1 UNK         0.0934 
     87 H87        29.1145   -2.6023   -5.2501 H         1 UNK         0.0934 
     88 H88        27.5878   -2.2063   -7.8409 H         1 UNK         0.0739 
     89 H89        26.2196   -2.0808   -5.3242 H         1 UNK         0.3093 
     90 H90        23.4746   -0.1920   -6.7024 H         1 UNK         0.0818 
     91 H91        23.1952   -2.6247   -7.2438 H         1 UNK         0.0819 
     92 H92        23.7862   -3.0480   -5.6426 H         1 UNK         0.0819 
     93 H93        22.2772   -2.1560   -5.8220 H         1 UNK         0.0819 
     94 H94        23.5613   -0.9649   -4.0928 H         1 UNK         0.3041 
     95 H95        25.5397    1.5027   -2.5778 H         1 UNK         0.0784 
     96 H96        23.7013    2.9665   -3.3685 H         1 UNK         0.0793 
     97 H97        22.5136    1.7284   -2.9934 H         1 UNK         0.0793 
     98 H98        23.4396    2.4885   -1.6992 H         1 UNK         0.0793 
     99 H99        25.1613   -0.1892   -1.2476 H         1 UNK         0.3024 
    100 H100       23.6420   -1.3731    0.3010 H         1 UNK         0.1171 
    101 H101       22.0129   -3.3867   -1.3464 H         1 UNK         0.0786 
    102 H102       22.3044   -3.4660    0.3911 H         1 UNK         0.0786 
    103 H103       21.3465   -2.1572   -0.2806 H         1 UNK         0.0786 
    104 H104       24.4388   -3.6995   -1.3055 H         1 UNK         0.2977 
    105 H105       27.5814    0.1717   -5.2608 H         1 UNK         0.3127 
    106 H106       29.9312    1.6338   -6.1799 H         1 UNK         0.0770 
    107 H107       29.1994    3.3332   -4.5401 H         1 UNK         0.0814 
    108 H108       27.6906    2.4770   -4.2635 H         1 UNK         0.0814 
    109 H109       29.2256    1.7429   -3.7974 H         1 UNK         0.0814 
    110 H110       26.3653    1.9041   -6.5420 H         1 UNK         0.2983 
    111 H111       26.3356    4.1755   -8.2522 H         1 UNK         0.0947 
    112 H112       24.3481    1.8469   -8.0584 H         1 UNK         0.0806 
    113 H113       24.0309    3.4065   -8.8045 H         1 UNK         0.0806 
    114 H114       24.3205    3.3071   -7.0738 H         1 UNK         0.0806 
    115 H115       26.7305    0.7104   -8.9716 H         1 UNK         0.3000 
    116 H116       26.9439    1.0026  -11.8333 H         1 UNK         0.0850 
    117 H117       27.7183   -1.3428  -11.7372 H         1 UNK         0.0810 
    118 H118       26.3289   -1.1449  -10.6817 H         1 UNK         0.0810 
    119 H119       27.9531   -1.2372  -10.0008 H         1 UNK         0.0810 
    120 H120       29.0217    2.1191   -9.4441 H         1 UNK         0.3040 
    121 H121       31.0182    2.9876   -9.3587 H         1 UNK         0.0766 
    122 H122       31.1165    2.8509  -12.4137 H         1 UNK         0.0812 
    123 H123       32.0674    3.9019  -11.3769 H         1 UNK         0.0812 
    124 H124       30.3298    4.1243  -11.4808 H         1 UNK         0.0812 
    125 H125       30.8765    0.1375   -8.9805 H         1 UNK         0.3205 
    126 H126       33.3270   -1.0192  -10.0386 H         1 UNK         0.0754 
    127 H127       32.8477   -2.8305   -8.4359 H         1 UNK         0.0769 
    128 H128       31.3723   -2.4007   -9.2882 H         1 UNK         0.0769 
    129 H129       31.6280   -1.8478   -7.6335 H         1 UNK         0.0769 
    130 H130       32.5117    1.0414   -7.3126 H         1 UNK         0.2981 
    131 H131       35.1872    1.6984   -6.7773 H         1 UNK         0.0541 
    132 H132       35.2413    3.3658   -4.8239 H         1 UNK         0.3459 
    133 H133       33.8522    4.4198   -4.7951 H         1 UNK         0.3459 
    134 H134       35.2347    1.0570   -4.3071 H         1 UNK         0.0612 
    135 H135       35.4229   -0.2580   -5.4155 H         1 UNK         0.0612 
    136 H136       34.3000   -2.3075   -5.3080 H         1 UNK         0.0624 
    137 H137       34.6631   -2.2584   -3.5954 H         1 UNK         0.0624 
@<TRIPOS>BOND
     1    1    2 1    
     2    1   72 1    
     3    1   73 1    
     4    1   74 1    
     5    2    3 2    
     6    2    4 am   BACKBONE|DICT|INTERRES
     7    4    5 1    
     8    4   75 1    
     9    5    6 1    
    10    5   35 1    
    11    5   76 1    
    12    6    7 1    
    13    6   77 1    
    14    6   78 1    
    15    7    8 1    
    16    8    9 1    
    17    8   79 1    
    18    8   80 1    
    19    9   10 ar   
    20    9   14 ar   
    21   10   11 ar   
    22   10   81 1    
    23   11   12 ar   
    24   11   71 1    
    25   12   13 ar   
    26   12   82 1    
    27   13   14 ar   
    28   13   15 1    
    29   14   83 1    
    30   15   16 1    
    31   15   84 1    
    32   15   85 1    
    33   16   17 1    
    34   17   18 1    
    35   17   86 1    
    36   17   87 1    
    37   18   19 1    
    38   18   37 1    
    39   18   88 1    
    40   19   20 am   BACKBONE|DICT|INTERRES
    41   19   89 1    
    42   20   21 2    
    43   20   22 1    
    44   22   23 1    
    45   22   24 1    
    46   22   90 1    
    47   23   91 1    
    48   23   92 1    
    49   23   93 1    
    50   24   25 am   BACKBONE|DICT|INTERRES
    51   24   94 1    
    52   25   26 2    
    53   25   27 1    
    54   27   28 1    
    55   27   29 1    
    56   27   95 1    
    57   28   96 1    
    58   28   97 1    
    59   28   98 1    
    60   29   30 am   BACKBONE|DICT|INTERRES
    61   29   99 1    
    62   30   31 2    
    63   30   32 1    
    64   32   33 1    
    65   32   34 1    
    66   32  100 1    
    67   33  101 1    
    68   33  102 1    
    69   33  103 1    
    70   34   35 am   BACKBONE|DICT|INTERRES
    71   34  104 1    
    72   35   36 2    
    73   37   38 2    
    74   37   39 am   BACKBONE|DICT|INTERRES
    75   39   40 1    
    76   39  105 1    
    77   40   41 1    
    78   40   42 1    
    79   40  106 1    
    80   41  107 1    
    81   41  108 1    
    82   41  109 1    
    83   42   43 2    
    84   42   44 am   BACKBONE|DICT|INTERRES
    85   44   45 1    
    86   44  110 1    
    87   45   46 1    
    88   45   47 1    
    89   45  111 1    
    90   46  112 1    
    91   46  113 1    
    92   46  114 1    
    93   47   48 2    
    94   47   49 am   BACKBONE|DICT|INTERRES
    95   49   50 1    
    96   49  115 1    
    97   50   51 1    
    98   50   52 1    
    99   50  116 1    
   100   51  117 1    
   101   51  118 1    
   102   51  119 1    
   103   52   53 2    
   104   52   54 am   BACKBONE|DICT|INTERRES
   105   54   55 1    
   106   54  120 1    
   107   55   56 1    
   108   55   57 1    
   109   55  121 1    
   110   56  122 1    
   111   56  123 1    
   112   56  124 1    
   113   57   58 2    
   114   57   59 am   BACKBONE|DICT|INTERRES
   115   59   60 1    
   116   59  125 1    
   117   60   61 1    
   118   60   62 1    
   119   60  126 1    
   120   61  127 1    
   121   61  128 1    
   122   61  129 1    
   123   62   63 2    
   124   62   64 am   BACKBONE|DICT|INTERRES
   125   64   65 1    
   126   64  130 1    
   127   65   66 1    
   128   65   69 1    
   129   65  131 1    
   130   66   67 am   BACKBONE|DICT|INTERRES
   131   66   68 2    
   132   67  132 1    
   133   67  133 1    
   134   69   70 1    
   135   69  134 1    
   136   69  135 1    
   137   70   71 1    
   138   71  136 1    
   139   71  137 1    
@<TRIPOS>SUBSTRUCTURE
     1 UNK         1 GROUP             0       ****    0 ROOT    
