@<TRIPOS>MOLECULE
3R137
137   139    1
SMALL
USER_CHARGES


@<TRIPOS>ATOM
      1 CA         25.7804   -5.4963   -0.1181 C.3       0 UNK        -0.2020 
      2 C          26.6789   -5.4934   -1.3518 C.2       0 UNK         0.4855 
      3 O          26.8527   -6.5384   -1.9746 O.2       0 UNK        -0.5197 
      4 N          27.2832   -4.3635   -1.7416 N.am      1 UNK        -0.4892 
      5 CA         27.1226   -3.0231   -1.1722 C.3       1 UNK         0.0835 
      6 C6         28.3094   -2.1000   -1.5482 C.3       12 UNK        -0.0855 
      7 S7         29.8067   -2.4345   -0.5564 S.3       12 UNK        -0.2931 
      8 C8         30.5946   -3.8551   -1.3893 C.3       12 UNK         0.0378 
      9 C9         30.9073   -3.5875   -2.8545 C.ar      12 UNK        -0.0802 
     10 C10        31.9216   -2.6905   -3.2074 C.ar      12 UNK        -0.0944 
     11 C11        32.2226   -2.4572   -4.5521 C.ar      12 UNK        -0.0787 
     12 C12        31.4784   -3.1065   -5.5397 C.ar      12 UNK        -0.0862 
     13 C13        30.4530   -3.9964   -5.2078 C.ar      12 UNK        -0.0733 
     14 C14        30.1970   -4.2569   -3.8574 C.ar      12 UNK        -0.0832 
     15 C15        29.6845   -4.6833   -6.3385 C.3       12 UNK         0.0240 
     16 S16        27.9513   -5.1551   -5.9826 S.3       12 UNK        -0.2522 
     17 C17        27.1693   -3.6452   -5.3185 C.3       12 UNK        -0.0967 
     18 CA         26.8098   -2.5656   -6.3719 C.3       5 UNK         0.0660 
     19 N          25.5953   -1.8274   -6.0005 N.am      5 UNK        -0.4015 
     20 C          24.9689   -0.9583   -6.8091 C.2       4 UNK         0.4946 
     21 O          25.3325   -0.7063   -7.9581 O.2       4 UNK        -0.5353 
     22 CA         23.7497   -0.2164   -6.2404 C.3       4 UNK         0.0277 
     23 CB         22.4991   -1.1078   -6.2982 C.3       4 UNK        -0.1981 
     24 N          23.9265    0.2859   -4.8764 N.am      4 UNK        -0.4209 
     25 C          24.8855    1.1166   -4.4493 C.2       3 UNK         0.4942 
     26 O          25.8147    1.5037   -5.1543 O.2       3 UNK        -0.5208 
     27 CA         24.8141    1.5954   -2.9869 C.3       3 UNK         0.0250 
     28 CB         23.8123    2.7560   -2.8322 C.3       3 UNK        -0.1990 
     29 N          24.5656    0.5256   -2.0100 N.am      3 UNK        -0.4232 
     30 C          23.4884   -0.2631   -1.8747 C.2       2 UNK         0.4993 
     31 O          22.4560   -0.1315   -2.5353 O.2       2 UNK        -0.5286 
     32 CA         23.6091   -1.4233   -0.8661 C.3       2 UNK         0.0209 
     33 CB         22.6476   -2.5860   -1.1963 C.3       2 UNK        -0.1931 
     34 N          24.9796   -1.9368   -0.6982 N.am      2 UNK        -0.4546 
     35 C          25.7855   -2.4290   -1.6535 C.2       1 UNK         0.5154 
     36 O          25.5235   -2.4201   -2.8600 O.2       1 UNK        -0.5181 
     37 C          27.9873   -1.5983   -6.5973 C.2       5 UNK         0.5014 
     38 O          28.6766   -1.6879   -7.6149 O.2       5 UNK        -0.5248 
     39 N          28.1658   -0.6661   -5.6506 N.am      6 UNK        -0.4434 
     40 CA         29.2300    0.3322   -5.6748 C.3       6 UNK         0.0363 
     41 CB         29.3181    1.0397   -4.3142 C.3       6 UNK        -0.1936 
     42 C          29.0806    1.3409   -6.8212 C.2       6 UNK         0.5081 
     43 O          30.0833    1.7059   -7.4340 O.2       6 UNK        -0.5248 
     44 N          27.8367    1.7415   -7.1143 N.am      7 UNK        -0.4718 
     45 CA         27.4740    2.5875   -8.2505 C.3       7 UNK         0.0273 
     46 CB         26.0082    3.0298   -8.1169 C.3       7 UNK        -0.1935 
     47 C          27.7135    1.8955   -9.6015 C.2       7 UNK         0.5018 
     48 O          28.2354    2.5360  -10.5138 O.2       7 UNK        -0.5186 
     49 N          27.3572    0.6051   -9.7012 N.am      8 UNK        -0.4240 
     50 CA         27.5843   -0.2259  -10.8876 C.3       8 UNK         0.0235 
     51 CB         26.8348   -1.5606  -10.7459 C.3       8 UNK        -0.2000 
     52 C          29.0765   -0.4657  -11.1691 C.2       8 UNK         0.4941 
     53 O          29.4965   -0.3662  -12.3227 O.2       8 UNK        -0.5273 
     54 N          29.8515   -0.7555  -10.1146 N.am      9 UNK        -0.4262 
     55 CA         31.3064   -0.9222  -10.1822 C.3       9 UNK         0.0264 
     56 CB         31.7817   -1.6417   -8.9142 C.3       9 UNK        -0.1955 
     57 C          32.0729    0.4016  -10.3528 C.2       9 UNK         0.5031 
     58 O          33.2099    0.3754  -10.8258 O.2       9 UNK        -0.5390 
     59 N          31.4509    1.5160   -9.9428 N.am      10 UNK        -0.4204 
     60 CA         31.9886    2.8777   -9.8717 C.3       10 UNK         0.0237 
     61 CB         32.3470    3.4159  -11.2737 C.3       10 UNK        -0.1985 
     62 C          33.1356    3.0140   -8.8494 C.2       10 UNK         0.4970 
     63 O          34.0554    3.8049   -9.0684 O.2       10 UNK        -0.4914 
     64 N          33.0565    2.2543   -7.7473 N.am      11 UNK        -0.4285 
     65 CA         34.0050    2.3178   -6.6222 C.3       11 UNK         0.1007 
     66 C          33.6559    3.4029   -5.5619 C.2       11 UNK         0.5703 
     67 N          32.4884    4.0351   -5.6171 N.am      11 UNK        -0.7361 
     68 O          34.4689    3.6908   -4.6865 O.2       11 UNK        -0.4986 
     69 C69        34.2621    0.9220   -5.9907 C.3       12 UNK        -0.0947 
     70 S70        32.7890    0.1647   -5.2316 S.3       12 UNK        -0.2240 
     71 C71        33.3672   -1.5335   -4.9481 C.3       12 UNK         0.0194 
     72 H72        24.8849   -4.8992   -0.2850 H         1 UNK         0.0906 
     73 H73        25.4591   -6.5116    0.1140 H         1 UNK         0.0906 
     74 H74        26.3072   -5.1141    0.7554 H         1 UNK         0.0906 
     75 H75        27.8330   -4.3974   -2.5840 H         1 UNK         0.3140 
     76 H76        27.0947   -3.1007   -0.0838 H         1 UNK         0.1085 
     77 H77        28.5428   -2.1480   -2.6119 H         1 UNK         0.0836 
     78 H78        28.0537   -1.0557   -1.3567 H         1 UNK         0.0836 
     79 H79        31.5238   -4.0894   -0.8678 H         1 UNK         0.0731 
     80 H80        29.9629   -4.7368   -1.2772 H         1 UNK         0.0731 
     81 H81        32.4829   -2.1838   -2.4341 H         1 UNK         0.1312 
     82 H82        31.7127   -2.9291   -6.5767 H         1 UNK         0.1406 
     83 H83        29.4426   -4.9821   -3.5886 H         1 UNK         0.1631 
     84 H84        30.2283   -5.5876   -6.6136 H         1 UNK         0.0717 
     85 H85        29.6868   -4.0546   -7.2291 H         1 UNK         0.0717 
     86 H86        27.7624   -3.2343   -4.5037 H         1 UNK         0.0934 
     87 H87        26.2540   -4.0015   -4.8430 H         1 UNK         0.0934 
     88 H88        26.6000   -3.0604   -7.3228 H         1 UNK         0.0739 
     89 H89        25.2520   -1.9596   -5.0559 H         1 UNK         0.3093 
     90 H90        23.5757    0.6525   -6.8783 H         1 UNK         0.0818 
     91 H91        21.6046   -0.5540   -6.0125 H         1 UNK         0.0819 
     92 H92        22.3350   -1.4875   -7.3078 H         1 UNK         0.0819 
     93 H93        22.5852   -1.9688   -5.6339 H         1 UNK         0.0819 
     94 H94        23.2176    0.0278   -4.1922 H         1 UNK         0.3041 
     95 H95        25.8031    1.9880   -2.7442 H         1 UNK         0.0784 
     96 H96        24.0697    3.5810   -3.4980 H         1 UNK         0.0793 
     97 H97        22.7924    2.4544   -3.0725 H         1 UNK         0.0793 
     98 H98        23.8147    3.1479   -1.8152 H         1 UNK         0.0793 
     99 H99        25.3540    0.3059   -1.4182 H         1 UNK         0.3024 
    100 H100       23.3080   -1.0091    0.0978 H         1 UNK         0.1171 
    101 H101       22.7190   -3.3830   -0.4564 H         1 UNK         0.0786 
    102 H102       22.8575   -3.0172   -2.1759 H         1 UNK         0.0786 
    103 H103       21.6099   -2.2498   -1.2045 H         1 UNK         0.0786 
    104 H104       25.3097   -1.9541    0.2578 H         1 UNK         0.2977 
    105 H105       27.5081   -0.6139   -4.8875 H         1 UNK         0.3127 
    106 H106       30.1562   -0.2137   -5.8458 H         1 UNK         0.0770 
    107 H107       28.3932    1.5616   -4.0667 H         1 UNK         0.0814 
    108 H108       30.1208    1.7787   -4.3145 H         1 UNK         0.0814 
    109 H109       29.5348    0.3312   -3.5143 H         1 UNK         0.0814 
    110 H110       27.0777    1.4535   -6.4993 H         1 UNK         0.2983 
    111 H111       28.1053    3.4783   -8.2178 H         1 UNK         0.0947 
    112 H112       25.7180    3.6785   -8.9444 H         1 UNK         0.0806 
    113 H113       25.8460    3.5873   -7.1942 H         1 UNK         0.0806 
    114 H114       25.3284    2.1770   -8.1142 H         1 UNK         0.0806 
    115 H115       26.8851    0.1623   -8.9178 H         1 UNK         0.3000 
    116 H116       27.1689    0.3046  -11.7471 H         1 UNK         0.0850 
    117 H117       26.9886   -2.1911  -11.6226 H         1 UNK         0.0810 
    118 H118       25.7610   -1.4016  -10.6454 H         1 UNK         0.0810 
    119 H119       27.1706   -2.1235   -9.8744 H         1 UNK         0.0810 
    120 H120       29.4120   -0.8969   -9.2066 H         1 UNK         0.3040 
    121 H121       31.5420   -1.5525  -11.0424 H         1 UNK         0.0766 
    122 H122       32.8615   -1.7965   -8.9275 H         1 UNK         0.0812 
    123 H123       31.5427   -1.0670   -8.0180 H         1 UNK         0.0812 
    124 H124       31.3118   -2.6212   -8.8266 H         1 UNK         0.0812 
    125 H125       30.5483    1.4008   -9.4963 H         1 UNK         0.3205 
    126 H126       31.1745    3.4937   -9.4868 H         1 UNK         0.0754 
    127 H127       32.5949    4.4772  -11.2332 H         1 UNK         0.0769 
    128 H128       31.5106    3.3058  -11.9641 H         1 UNK         0.0769 
    129 H129       33.2064    2.8985  -11.7010 H         1 UNK         0.0769 
    130 H130       32.2263    1.6914   -7.6035 H         1 UNK         0.2981 
    131 H131       34.9689    2.6325   -7.0262 H         1 UNK         0.0541 
    132 H132       31.8106    3.7923   -6.3218 H         1 UNK         0.3459 
    133 H133       32.2769    4.7421   -4.9313 H         1 UNK         0.3459 
    134 H134       35.0472    0.9829   -5.2349 H         1 UNK         0.0612 
    135 H135       34.6396    0.2455   -6.7590 H         1 UNK         0.0612 
    136 H136       33.8446   -1.9095   -5.8543 H         1 UNK         0.0624 
    137 H137       34.1355   -1.5264   -4.1736 H         1 UNK         0.0624 
@<TRIPOS>BOND
     1    1    2 1    
     2    1   72 1    
     3    1   73 1    
     4    1   74 1    
     5    2    3 2    
     6    2    4 am   BACKBONE|DICT|INTERRES
     7    4    5 1    
     8    4   75 1    
     9    5    6 1    
    10    5   35 1    
    11    5   76 1    
    12    6    7 1    
    13    6   77 1    
    14    6   78 1    
    15    7    8 1    
    16    8    9 1    
    17    8   79 1    
    18    8   80 1    
    19    9   10 ar   
    20    9   14 ar   
    21   10   11 ar   
    22   10   81 1    
    23   11   12 ar   
    24   11   71 1    
    25   12   13 ar   
    26   12   82 1    
    27   13   14 ar   
    28   13   15 1    
    29   14   83 1    
    30   15   16 1    
    31   15   84 1    
    32   15   85 1    
    33   16   17 1    
    34   17   18 1    
    35   17   86 1    
    36   17   87 1    
    37   18   19 1    
    38   18   37 1    
    39   18   88 1    
    40   19   20 am   BACKBONE|DICT|INTERRES
    41   19   89 1    
    42   20   21 2    
    43   20   22 1    
    44   22   23 1    
    45   22   24 1    
    46   22   90 1    
    47   23   91 1    
    48   23   92 1    
    49   23   93 1    
    50   24   25 am   BACKBONE|DICT|INTERRES
    51   24   94 1    
    52   25   26 2    
    53   25   27 1    
    54   27   28 1    
    55   27   29 1    
    56   27   95 1    
    57   28   96 1    
    58   28   97 1    
    59   28   98 1    
    60   29   30 am   BACKBONE|DICT|INTERRES
    61   29   99 1    
    62   30   31 2    
    63   30   32 1    
    64   32   33 1    
    65   32   34 1    
    66   32  100 1    
    67   33  101 1    
    68   33  102 1    
    69   33  103 1    
    70   34   35 am   BACKBONE|DICT|INTERRES
    71   34  104 1    
    72   35   36 2    
    73   37   38 2    
    74   37   39 am   BACKBONE|DICT|INTERRES
    75   39   40 1    
    76   39  105 1    
    77   40   41 1    
    78   40   42 1    
    79   40  106 1    
    80   41  107 1    
    81   41  108 1    
    82   41  109 1    
    83   42   43 2    
    84   42   44 am   BACKBONE|DICT|INTERRES
    85   44   45 1    
    86   44  110 1    
    87   45   46 1    
    88   45   47 1    
    89   45  111 1    
    90   46  112 1    
    91   46  113 1    
    92   46  114 1    
    93   47   48 2    
    94   47   49 am   BACKBONE|DICT|INTERRES
    95   49   50 1    
    96   49  115 1    
    97   50   51 1    
    98   50   52 1    
    99   50  116 1    
   100   51  117 1    
   101   51  118 1    
   102   51  119 1    
   103   52   53 2    
   104   52   54 am   BACKBONE|DICT|INTERRES
   105   54   55 1    
   106   54  120 1    
   107   55   56 1    
   108   55   57 1    
   109   55  121 1    
   110   56  122 1    
   111   56  123 1    
   112   56  124 1    
   113   57   58 2    
   114   57   59 am   BACKBONE|DICT|INTERRES
   115   59   60 1    
   116   59  125 1    
   117   60   61 1    
   118   60   62 1    
   119   60  126 1    
   120   61  127 1    
   121   61  128 1    
   122   61  129 1    
   123   62   63 2    
   124   62   64 am   BACKBONE|DICT|INTERRES
   125   64   65 1    
   126   64  130 1    
   127   65   66 1    
   128   65   69 1    
   129   65  131 1    
   130   66   67 am   BACKBONE|DICT|INTERRES
   131   66   68 2    
   132   67  132 1    
   133   67  133 1    
   134   69   70 1    
   135   69  134 1    
   136   69  135 1    
   137   70   71 1    
   138   71  136 1    
   139   71  137 1    
@<TRIPOS>SUBSTRUCTURE
     1 UNK         1 GROUP             0       ****    0 ROOT    
