@<TRIPOS>MOLECULE
3R137
137   139    1
SMALL
USER_CHARGES


@<TRIPOS>ATOM
      1 CA         24.4550    1.1779    2.7890 C.3       0 UNK        -0.2020 
      2 C          24.7374    1.0027    1.3045 C.2       0 UNK         0.4855 
      3 O          24.2289    1.7737    0.4908 O.2       0 UNK        -0.5197 
      4 N          25.5481   -0.0029    0.9472 N.am      1 UNK        -0.4892 
      5 CA         25.9098   -0.3410   -0.4353 C.3       1 UNK         0.0835 
      6 C6         27.1043   -1.3285   -0.4634 C.3       12 UNK        -0.0855 
      7 S7         27.8537   -1.5079   -2.1146 S.3       12 UNK        -0.2931 
      8 C8         29.5462   -2.0251   -1.6749 C.3       12 UNK         0.0378 
      9 C9         30.3575   -2.3588   -2.9187 C.ar      12 UNK        -0.0802 
     10 C10        31.5211   -1.6495   -3.2378 C.ar      12 UNK        -0.0944 
     11 C11        32.2356   -1.9500   -4.4028 C.ar      12 UNK        -0.0787 
     12 C12        31.7738   -2.9565   -5.2573 C.ar      12 UNK        -0.0862 
     13 C13        30.6206   -3.6778   -4.9392 C.ar      12 UNK        -0.0733 
     14 C14        29.9326   -3.3878   -3.7603 C.ar      12 UNK        -0.0832 
     15 C15        30.1096   -4.7769   -5.8546 C.3       12 UNK         0.0240 
     16 S16        28.4363   -4.4081   -6.4682 S.3       12 UNK        -0.2522 
     17 C17        28.7666   -3.1354   -7.7353 C.3       12 UNK        -0.0967 
     18 CA         28.0191   -1.7798   -7.5633 C.3       5 UNK         0.0660 
     19 N          26.7631   -1.8608   -6.8064 N.am      5 UNK        -0.4015 
     20 C          25.8173   -0.9120   -6.8018 C.2       4 UNK         0.4946 
     21 O          25.9157    0.1248   -7.4598 O.2       4 UNK        -0.5353 
     22 CA         24.5831   -1.0869   -5.8978 C.3       4 UNK         0.0277 
     23 CB         23.2947   -1.2107   -6.7350 C.3       4 UNK        -0.1981 
     24 N          24.6639   -2.1469   -4.8817 N.am      4 UNK        -0.4209 
     25 C          24.6752   -3.4785   -5.0582 C.2       3 UNK         0.4942 
     26 O          24.7240   -4.0182   -6.1628 O.2       3 UNK        -0.5208 
     27 CA         24.6421   -4.3701   -3.7995 C.3       3 UNK         0.0250 
     28 CB         26.0334   -4.9606   -3.5228 C.3       3 UNK        -0.1990 
     29 N          24.1775   -3.6757   -2.5964 N.am      3 UNK        -0.4232 
     30 C          22.9258   -3.2435   -2.3852 C.2       2 UNK         0.4993 
     31 O          21.9828   -3.4905   -3.1375 O.2       2 UNK        -0.5286 
     32 CA         22.6843   -2.3636   -1.1417 C.3       2 UNK         0.0209 
     33 CB         21.9858   -3.1736   -0.0371 C.3       2 UNK        -0.1931 
     34 N          23.8901   -1.7344   -0.5831 N.am      2 UNK        -0.4546 
     35 C          24.7014   -0.8826   -1.2307 C.2       1 UNK         0.5154 
     36 O          24.5328   -0.5407   -2.4026 O.2       1 UNK        -0.5181 
     37 C          28.9339   -0.6139   -7.1244 C.2       5 UNK         0.5014 
     38 O          29.6729   -0.1037   -7.9673 O.2       5 UNK        -0.5248 
     39 N          28.8158   -0.1486   -5.8697 N.am      6 UNK        -0.4434 
     40 CA         29.4327    1.0964   -5.3967 C.3       6 UNK         0.0363 
     41 CB         29.2664    1.2338   -3.8761 C.3       6 UNK        -0.1936 
     42 C          28.8628    2.3470   -6.0860 C.2       6 UNK         0.5081 
     43 O          29.6299    3.2318   -6.4626 O.2       6 UNK        -0.5248 
     44 N          27.5330    2.3956   -6.2540 N.am      7 UNK        -0.4718 
     45 CA         26.8207    3.4937   -6.9160 C.3       7 UNK         0.0273 
     46 CB         25.3205    3.4149   -6.5894 C.3       7 UNK        -0.1935 
     47 C          27.0549    3.5042   -8.4347 C.2       7 UNK         0.5018 
     48 O          27.1545    4.5798   -9.0254 O.2       7 UNK        -0.5186 
     49 N          27.1880    2.3092   -9.0274 N.am      8 UNK        -0.4240 
     50 CA         27.6041    2.1088  -10.4190 C.3       8 UNK         0.0235 
     51 CB         27.2716    0.6673  -10.8377 C.3       8 UNK        -0.2000 
     52 C          29.0999    2.3996  -10.6627 C.2       8 UNK         0.4941 
     53 O          29.5030    2.4907  -11.8228 O.2       8 UNK        -0.5273 
     54 N          29.8894    2.5154   -9.5825 N.am      9 UNK        -0.4262 
     55 CA         31.3449    2.6949   -9.5405 C.3       9 UNK         0.0264 
     56 CB         31.7569    4.0538  -10.1447 C.3       9 UNK        -0.1955 
     57 C          32.1166    1.5059  -10.1449 C.2       9 UNK         0.5031 
     58 O          33.2001    1.6912  -10.7038 O.2       9 UNK        -0.5390 
     59 N          31.5723    0.2920   -9.9923 N.am      10 UNK        -0.4204 
     60 CA         32.1608   -0.9669  -10.4500 C.3       10 UNK         0.0237 
     61 CB         31.0264   -1.9416  -10.8158 C.3       10 UNK        -0.1985 
     62 C          33.1201   -1.5231   -9.3823 C.2       10 UNK         0.4970 
     63 O          32.9430   -2.6486   -8.9120 O.2       10 UNK        -0.4914 
     64 N          34.1004   -0.6956   -9.0061 N.am      11 UNK        -0.4285 
     65 CA         35.0776   -0.9399   -7.9344 C.3       11 UNK         0.1007 
     66 C          36.5443   -1.0077   -8.4480 C.2       11 UNK         0.5703 
     67 N          36.8001   -0.9411   -9.7498 N.am      11 UNK        -0.7361 
     68 O          37.4714   -1.1449   -7.6533 O.2       11 UNK        -0.4986 
     69 C69        34.9159    0.0898   -6.7806 C.3       12 UNK        -0.0947 
     70 S70        33.2540    0.0389   -6.0294 S.3       12 UNK        -0.2240 
     71 C71        33.5208   -1.2109   -4.7373 C.3       12 UNK         0.0194 
     72 H72        24.9724    0.4342    3.3948 H         1 UNK         0.0906 
     73 H73        24.7768    2.1656    3.1180 H         1 UNK         0.0906 
     74 H74        23.3861    1.0866    2.9805 H         1 UNK         0.0906 
     75 H75        25.9461   -0.5919    1.6657 H         1 UNK         0.3140 
     76 H76        26.2238    0.5848   -0.9236 H         1 UNK         0.1085 
     77 H77        27.8809   -0.9723    0.2157 H         1 UNK         0.0836 
     78 H78        26.8138   -2.3147   -0.0962 H         1 UNK         0.0836 
     79 H79        29.5032   -2.9029   -1.0284 H         1 UNK         0.0731 
     80 H80        30.0267   -1.2320   -1.0999 H         1 UNK         0.0731 
     81 H81        31.8689   -0.8614   -2.5840 H         1 UNK         0.1312 
     82 H82        32.3173   -3.1770   -6.1667 H         1 UNK         0.1406 
     83 H83        29.0423   -3.9475   -3.5119 H         1 UNK         0.1631 
     84 H84        30.0805   -5.7143   -5.2976 H         1 UNK         0.0717 
     85 H85        30.7833   -4.9400   -6.6975 H         1 UNK         0.0717 
     86 H86        29.8446   -2.9856   -7.8255 H         1 UNK         0.0934 
     87 H87        28.4708   -3.5784   -8.6877 H         1 UNK         0.0934 
     88 H88        27.7102   -1.4997   -8.5715 H         1 UNK         0.0739 
     89 H89        26.5991   -2.7200   -6.2982 H         1 UNK         0.3093 
     90 H90        24.5075   -0.1588   -5.3288 H         1 UNK         0.0818 
     91 H91        23.3026   -2.0990   -7.3671 H         1 UNK         0.0819 
     92 H92        22.4114   -1.2587   -6.0982 H         1 UNK         0.0819 
     93 H93        23.1733   -0.3488   -7.3926 H         1 UNK         0.0819 
     94 H94        24.6556   -1.7982   -3.9266 H         1 UNK         0.3041 
     95 H95        23.9532   -5.1927   -4.0029 H         1 UNK         0.0784 
     96 H96        26.4034   -5.5141   -4.3870 H         1 UNK         0.0793 
     97 H97        26.7592   -4.1798   -3.2978 H         1 UNK         0.0793 
     98 H98        26.0124   -5.6539   -2.6819 H         1 UNK         0.0793 
     99 H99        24.8804   -3.4346   -1.9134 H         1 UNK         0.3024 
    100 H100       22.0142   -1.5595   -1.4543 H         1 UNK         0.1171 
    101 H101       21.0671   -3.6304   -0.4081 H         1 UNK         0.0786 
    102 H102       22.6211   -3.9775    0.3369 H         1 UNK         0.0786 
    103 H103       21.7106   -2.5406    0.8069 H         1 UNK         0.0786 
    104 H104       24.1015   -1.9444    0.3818 H         1 UNK         0.2977 
    105 H105       28.2167   -0.6404   -5.2228 H         1 UNK         0.3127 
    106 H106       30.4995    1.0497   -5.6215 H         1 UNK         0.0770 
    107 H107       28.2178    1.2193   -3.5769 H         1 UNK         0.0814 
    108 H108       29.6943    2.1718   -3.5195 H         1 UNK         0.0814 
    109 H109       29.7779    0.4344   -3.3474 H         1 UNK         0.0814 
    110 H110       26.9776    1.5963   -5.9828 H         1 UNK         0.2983 
    111 H111       27.2052    4.4356   -6.5179 H         1 UNK         0.0947 
    112 H112       24.7833    4.2547   -7.0324 H         1 UNK         0.0806 
    113 H113       25.1457    3.4509   -5.5141 H         1 UNK         0.0806 
    114 H114       24.8655    2.5016   -6.9734 H         1 UNK         0.0806 
    115 H115       27.0006    1.4791   -8.4719 H         1 UNK         0.3000 
    116 H116       27.0283    2.7916  -11.0473 H         1 UNK         0.0850 
    117 H117       27.4256    0.5299  -11.9088 H         1 UNK         0.0810 
    118 H118       26.2328    0.4147  -10.6232 H         1 UNK         0.0810 
    119 H119       27.9091   -0.0539  -10.3275 H         1 UNK         0.0810 
    120 H120       29.4525    2.4058   -8.6764 H         1 UNK         0.3040 
    121 H121       31.6111    2.7126   -8.4824 H         1 UNK         0.0766 
    122 H122       31.2017    4.8739   -9.6894 H         1 UNK         0.0812 
    123 H123       31.5859    4.0878  -11.2210 H         1 UNK         0.0812 
    124 H124       32.8169    4.2498   -9.9789 H         1 UNK         0.0812 
    125 H125       30.7543    0.2097   -9.3879 H         1 UNK         0.3205 
    126 H126       32.7475   -0.7889  -11.3537 H         1 UNK         0.0754 
    127 H127       31.4239   -2.8952  -11.1657 H         1 UNK         0.0769 
    128 H128       30.4027   -1.5379  -11.6135 H         1 UNK         0.0769 
    129 H129       30.3817   -2.1462   -9.9626 H         1 UNK         0.0769 
    130 H130       34.1567    0.2080   -9.4610 H         1 UNK         0.2981 
    131 H131       34.8983   -1.9292   -7.5107 H         1 UNK         0.0541 
    132 H132       37.7554   -0.9943  -10.0669 H         1 UNK         0.3459 
    133 H133       36.0512   -0.8546  -10.4177 H         1 UNK         0.3459 
    134 H134       35.0892    1.1017   -7.1505 H         1 UNK         0.0612 
    135 H135       35.6560   -0.0767   -5.9956 H         1 UNK         0.0612 
    136 H136       34.2657   -1.9354   -5.0698 H         1 UNK         0.0624 
    137 H137       33.9355   -0.7272   -3.8517 H         1 UNK         0.0624 
@<TRIPOS>BOND
     1    1    2 1    
     2    1   72 1    
     3    1   73 1    
     4    1   74 1    
     5    2    3 2    
     6    2    4 am   BACKBONE|DICT|INTERRES
     7    4    5 1    
     8    4   75 1    
     9    5    6 1    
    10    5   35 1    
    11    5   76 1    
    12    6    7 1    
    13    6   77 1    
    14    6   78 1    
    15    7    8 1    
    16    8    9 1    
    17    8   79 1    
    18    8   80 1    
    19    9   10 ar   
    20    9   14 ar   
    21   10   11 ar   
    22   10   81 1    
    23   11   12 ar   
    24   11   71 1    
    25   12   13 ar   
    26   12   82 1    
    27   13   14 ar   
    28   13   15 1    
    29   14   83 1    
    30   15   16 1    
    31   15   84 1    
    32   15   85 1    
    33   16   17 1    
    34   17   18 1    
    35   17   86 1    
    36   17   87 1    
    37   18   19 1    
    38   18   37 1    
    39   18   88 1    
    40   19   20 am   BACKBONE|DICT|INTERRES
    41   19   89 1    
    42   20   21 2    
    43   20   22 1    
    44   22   23 1    
    45   22   24 1    
    46   22   90 1    
    47   23   91 1    
    48   23   92 1    
    49   23   93 1    
    50   24   25 am   BACKBONE|DICT|INTERRES
    51   24   94 1    
    52   25   26 2    
    53   25   27 1    
    54   27   28 1    
    55   27   29 1    
    56   27   95 1    
    57   28   96 1    
    58   28   97 1    
    59   28   98 1    
    60   29   30 am   BACKBONE|DICT|INTERRES
    61   29   99 1    
    62   30   31 2    
    63   30   32 1    
    64   32   33 1    
    65   32   34 1    
    66   32  100 1    
    67   33  101 1    
    68   33  102 1    
    69   33  103 1    
    70   34   35 am   BACKBONE|DICT|INTERRES
    71   34  104 1    
    72   35   36 2    
    73   37   38 2    
    74   37   39 am   BACKBONE|DICT|INTERRES
    75   39   40 1    
    76   39  105 1    
    77   40   41 1    
    78   40   42 1    
    79   40  106 1    
    80   41  107 1    
    81   41  108 1    
    82   41  109 1    
    83   42   43 2    
    84   42   44 am   BACKBONE|DICT|INTERRES
    85   44   45 1    
    86   44  110 1    
    87   45   46 1    
    88   45   47 1    
    89   45  111 1    
    90   46  112 1    
    91   46  113 1    
    92   46  114 1    
    93   47   48 2    
    94   47   49 am   BACKBONE|DICT|INTERRES
    95   49   50 1    
    96   49  115 1    
    97   50   51 1    
    98   50   52 1    
    99   50  116 1    
   100   51  117 1    
   101   51  118 1    
   102   51  119 1    
   103   52   53 2    
   104   52   54 am   BACKBONE|DICT|INTERRES
   105   54   55 1    
   106   54  120 1    
   107   55   56 1    
   108   55   57 1    
   109   55  121 1    
   110   56  122 1    
   111   56  123 1    
   112   56  124 1    
   113   57   58 2    
   114   57   59 am   BACKBONE|DICT|INTERRES
   115   59   60 1    
   116   59  125 1    
   117   60   61 1    
   118   60   62 1    
   119   60  126 1    
   120   61  127 1    
   121   61  128 1    
   122   61  129 1    
   123   62   63 2    
   124   62   64 am   BACKBONE|DICT|INTERRES
   125   64   65 1    
   126   64  130 1    
   127   65   66 1    
   128   65   69 1    
   129   65  131 1    
   130   66   67 am   BACKBONE|DICT|INTERRES
   131   66   68 2    
   132   67  132 1    
   133   67  133 1    
   134   69   70 1    
   135   69  134 1    
   136   69  135 1    
   137   70   71 1    
   138   71  136 1    
   139   71  137 1    
@<TRIPOS>SUBSTRUCTURE
     1 UNK         1 GROUP             0       ****    0 ROOT    
