@<TRIPOS>MOLECULE
3R137
137   139    1
SMALL
USER_CHARGES


@<TRIPOS>ATOM
      1 CA         27.1804    1.7246    2.5751 C.3       0 UNK        -0.2020 
      2 C          27.2426    1.1346    1.1738 C.2       0 UNK         0.4855 
      3 O          26.7057    1.7277    0.2376 O.2       0 UNK        -0.5197 
      4 N          27.8989   -0.0232    1.0240 N.am      1 UNK        -0.4892 
      5 CA         28.0024   -0.7727   -0.2333 C.3       1 UNK         0.0835 
      6 C6         29.3407   -1.5557   -0.3083 C.3       12 UNK        -0.0855 
      7 S7         29.9324   -1.7191   -2.0257 S.3       12 UNK        -0.2931 
      8 C8         30.3605   -3.4837   -2.1034 C.3       12 UNK         0.0378 
      9 C9         30.6541   -3.8816   -3.5395 C.ar      12 UNK        -0.0802 
     10 C10        31.8914   -3.5833   -4.1135 C.ar      12 UNK        -0.0944 
     11 C11        32.1480   -3.9007   -5.4503 C.ar      12 UNK        -0.0787 
     12 C12        31.1565   -4.5278   -6.2137 C.ar      12 UNK        -0.0862 
     13 C13        29.9184   -4.8444   -5.6436 C.ar      12 UNK        -0.0733 
     14 C14        29.6807   -4.5272   -4.3041 C.ar      12 UNK        -0.0832 
     15 C15        28.8467   -5.5548   -6.4600 C.3       12 UNK         0.0240 
     16 S16        27.9817   -4.4383   -7.6095 S.3       12 UNK        -0.2522 
     17 C17        26.9358   -3.4293   -6.4998 C.3       12 UNK        -0.0967 
     18 CA         26.6653   -2.0279   -7.1023 C.3       5 UNK         0.0660 
     19 N          25.3836   -1.4472   -6.6712 N.am      5 UNK        -0.4015 
     20 C          24.8540   -0.3390   -7.2202 C.2       4 UNK         0.4946 
     21 O          25.4160    0.3096   -8.1029 O.2       4 UNK        -0.5353 
     22 CA         23.4879    0.1633   -6.7246 C.3       4 UNK         0.0277 
     23 CB         22.3835   -0.2445   -7.7127 C.3       4 UNK        -0.1981 
     24 N          23.1191   -0.2780   -5.3811 N.am      4 UNK        -0.4209 
     25 C          23.7567    0.0534   -4.2511 C.2       3 UNK         0.4942 
     26 O          24.7703    0.7533   -4.2145 O.2       3 UNK        -0.5208 
     27 CA         23.1868   -0.5187   -2.9379 C.3       3 UNK         0.0250 
     28 CB         21.7929   -1.1728   -3.0815 C.3       3 UNK        -0.1990 
     29 N          24.1144   -1.4592   -2.3038 N.am      3 UNK        -0.4232 
     30 C          24.7112   -2.5201   -2.8666 C.2       2 UNK         0.4993 
     31 O          24.5802   -2.8450   -4.0505 O.2       2 UNK        -0.5286 
     32 CA         25.6485   -3.3165   -1.9442 C.3       2 UNK         0.0209 
     33 CB         26.1759   -4.6021   -2.6043 C.3       2 UNK        -0.1931 
     34 N          26.7730   -2.4725   -1.5264 N.am      2 UNK        -0.4546 
     35 C          26.7572   -1.6639   -0.4583 C.2       1 UNK         0.5154 
     36 O          25.7935   -1.6007    0.3113 O.2       1 UNK        -0.5181 
     37 C          27.8564   -1.0715   -6.8864 C.2       5 UNK         0.5014 
     38 O          28.7448   -1.0116   -7.7366 O.2       5 UNK        -0.5248 
     39 N          27.8146   -0.2837   -5.8009 N.am      6 UNK        -0.4434 
     40 CA         28.8030    0.7523   -5.4923 C.3       6 UNK         0.0363 
     41 CB         28.4950    1.3550   -4.1138 C.3       6 UNK        -0.1936 
     42 C          28.8818    1.8619   -6.5571 C.2       6 UNK         0.5081 
     43 O          29.9598    2.4205   -6.7581 O.2       6 UNK        -0.5248 
     44 N          27.7582    2.1457   -7.2289 N.am      7 UNK        -0.4718 
     45 CA         27.6850    3.0792   -8.3500 C.3       7 UNK         0.0273 
     46 CB         26.2955    3.7371   -8.3849 C.3       7 UNK        -0.1935 
     47 C          27.9919    2.3726   -9.6779 C.2       7 UNK         0.5018 
     48 O          28.8040    2.8781  -10.4515 O.2       7 UNK        -0.5186 
     49 N          27.3489    1.2195   -9.9163 N.am      8 UNK        -0.4240 
     50 CA         27.4219    0.4575  -11.1669 C.3       8 UNK         0.0235 
     51 CB         26.3786   -0.6710  -11.1502 C.3       8 UNK        -0.2000 
     52 C          28.8194   -0.0999  -11.4781 C.2       8 UNK         0.4941 
     53 O          29.2631    0.0038  -12.6223 O.2       8 UNK        -0.5273 
     54 N          29.4954   -0.6581  -10.4644 N.am      9 UNK        -0.4262 
     55 CA         30.8749   -1.1441  -10.5692 C.3       9 UNK         0.0264 
     56 CB         31.0469   -2.3691   -9.6541 C.3       9 UNK        -0.1955 
     57 C          31.9085   -0.0511  -10.2342 C.2       9 UNK         0.5031 
     58 O          33.1053   -0.2980  -10.3869 O.2       9 UNK        -0.5390 
     59 N          31.4373    1.1229   -9.7818 N.am      10 UNK        -0.4204 
     60 CA         32.2025    2.2973   -9.3412 C.3       10 UNK         0.0237 
     61 CB         32.9818    2.9215  -10.5185 C.3       10 UNK        -0.1985 
     62 C          33.0895    2.0331   -8.1062 C.2       10 UNK         0.4970 
     63 O          34.1000    2.7145   -7.9216 O.2       10 UNK        -0.4914 
     64 N          32.6952    1.0555   -7.2818 N.am      11 UNK        -0.4285 
     65 CA         33.3863    0.6611   -6.0467 C.3       11 UNK         0.1007 
     66 C          33.1539    1.6277   -4.8504 C.2       11 UNK         0.5703 
     67 N          32.1630    2.5113   -4.8861 N.am      11 UNK        -0.7361 
     68 O          33.8997    1.5826   -3.8750 O.2       11 UNK        -0.4986 
     69 C69        33.0547   -0.8004   -5.6526 C.3       12 UNK        -0.0947 
     70 S70        33.4654   -1.9917   -6.9726 S.3       12 UNK        -0.2240 
     71 C71        33.5001   -3.5650   -6.0617 C.3       12 UNK         0.0194 
     72 H72        27.7105    1.1092    3.3018 H         1 UNK         0.0906 
     73 H73        27.6263    2.7188    2.5839 H         1 UNK         0.0906 
     74 H74        26.1435    1.8131    2.8983 H         1 UNK         0.0906 
     75 H75        28.2814   -0.4816    1.8392 H         1 UNK         0.3140 
     76 H76        27.9957   -0.0397   -1.0431 H         1 UNK         0.1085 
     77 H77        30.1228   -1.0185    0.2314 H         1 UNK         0.0836 
     78 H78        29.2646   -2.5301    0.1789 H         1 UNK         0.0836 
     79 H79        29.5422   -4.0833   -1.7011 H         1 UNK         0.0731 
     80 H80        31.2302   -3.6776   -1.4737 H         1 UNK         0.0731 
     81 H81        32.6474   -3.0846   -3.5225 H         1 UNK         0.1312 
     82 H82        31.3477   -4.7686   -7.2506 H         1 UNK         0.1406 
     83 H83        28.7357   -4.7835   -3.8542 H         1 UNK         0.1631 
     84 H84        28.1158   -6.0375   -5.8092 H         1 UNK         0.0717 
     85 H85        29.3115   -6.3553   -7.0374 H         1 UNK         0.0717 
     86 H86        25.9992   -3.9714   -6.3587 H         1 UNK         0.0934 
     87 H87        27.3892   -3.3485   -5.5117 H         1 UNK         0.0934 
     88 H88        26.5657   -2.1529   -8.1818 H         1 UNK         0.0739 
     89 H89        24.8946   -1.9159   -5.9145 H         1 UNK         0.3093 
     90 H90        23.5405    1.2541   -6.7063 H         1 UNK         0.0818 
     91 H91        21.4231    0.1927   -7.4392 H         1 UNK         0.0819 
     92 H92        22.6164    0.0988   -8.7220 H         1 UNK         0.0819 
     93 H93        22.2610   -1.3275   -7.7578 H         1 UNK         0.0819 
     94 H94        22.3171   -0.8872   -5.3087 H         1 UNK         0.3041 
     95 H95        23.0872    0.3286   -2.2577 H         1 UNK         0.0784 
     96 H96        21.0696   -0.4785   -3.5118 H         1 UNK         0.0793 
     97 H97        21.8167   -2.0668   -3.7062 H         1 UNK         0.0793 
     98 H98        21.4025   -1.4691   -2.1077 H         1 UNK         0.0793 
     99 H99        24.3506   -1.2589   -1.3386 H         1 UNK         0.3024 
    100 H100       25.0694   -3.6179   -1.0676 H         1 UNK         0.1171 
    101 H101       25.3607   -5.3065   -2.7748 H         1 UNK         0.0786 
    102 H102       26.6254   -4.4012   -3.5737 H         1 UNK         0.0786 
    103 H103       26.9130   -5.1044   -1.9778 H         1 UNK         0.0786 
    104 H104       27.5849   -2.4526   -2.1295 H         1 UNK         0.2977 
    105 H105       27.0193   -0.3535   -5.1810 H         1 UNK         0.3127 
    106 H106       29.7820    0.2710   -5.4458 H         1 UNK         0.0770 
    107 H107       29.2359    2.1083   -3.8428 H         1 UNK         0.0814 
    108 H108       28.5122    0.5929   -3.3367 H         1 UNK         0.0814 
    109 H109       27.5154    1.8348   -4.0915 H         1 UNK         0.0814 
    110 H110       26.9285    1.5985   -7.0399 H         1 UNK         0.2983 
    111 H111       28.4258    3.8707   -8.2129 H         1 UNK         0.0947 
    112 H112       26.2220    4.4466   -9.2103 H         1 UNK         0.0806 
    113 H113       26.0973    4.2888   -7.4659 H         1 UNK         0.0806 
    114 H114       25.4975    3.0050   -8.5131 H         1 UNK         0.0806 
    115 H115       26.6844    0.8816   -9.2203 H         1 UNK         0.3000 
    116 H116       27.1587    1.1435  -11.9749 H         1 UNK         0.0850 
    117 H117       25.3736   -0.2815  -10.9860 H         1 UNK         0.0810 
    118 H118       26.5865   -1.4003  -10.3681 H         1 UNK         0.0810 
    119 H119       26.3685   -1.2066  -12.1003 H         1 UNK         0.0810 
    120 H120       29.0674   -0.7227   -9.5408 H         1 UNK         0.3040 
    121 H121       31.0705   -1.4684  -11.5934 H         1 UNK         0.0766 
    122 H122       30.9264   -2.1107   -8.6020 H         1 UNK         0.0812 
    123 H123       32.0405   -2.8046   -9.7668 H         1 UNK         0.0812 
    124 H124       30.3219   -3.1483   -9.8894 H         1 UNK         0.0812 
    125 H125       30.4327    1.2263   -9.7354 H         1 UNK         0.3205 
    126 H126       31.4604    3.0295   -9.0196 H         1 UNK         0.0754 
    127 H127       33.4251    3.8763  -10.2333 H         1 UNK         0.0769 
    128 H128       32.3267    3.1122  -11.3687 H         1 UNK         0.0769 
    129 H129       33.7922    2.2750  -10.8563 H         1 UNK         0.0769 
    130 H130       31.8444    0.5585   -7.4949 H         1 UNK         0.2981 
    131 H131       34.4581    0.6999   -6.2510 H         1 UNK         0.0541 
    132 H132       31.5171    2.5384   -5.6699 H         1 UNK         0.3459 
    133 H133       32.0369    3.1387   -4.1089 H         1 UNK         0.3459 
    134 H134       31.9949   -0.9023   -5.4120 H         1 UNK         0.0612 
    135 H135       33.6071   -1.0839   -4.7550 H         1 UNK         0.0612 
    136 H136       33.8013   -4.3598   -6.7455 H         1 UNK         0.0624 
    137 H137       34.2701   -3.5179   -5.2902 H         1 UNK         0.0624 
@<TRIPOS>BOND
     1    1    2 1    
     2    1   72 1    
     3    1   73 1    
     4    1   74 1    
     5    2    3 2    
     6    2    4 am   BACKBONE|DICT|INTERRES
     7    4    5 1    
     8    4   75 1    
     9    5    6 1    
    10    5   35 1    
    11    5   76 1    
    12    6    7 1    
    13    6   77 1    
    14    6   78 1    
    15    7    8 1    
    16    8    9 1    
    17    8   79 1    
    18    8   80 1    
    19    9   10 ar   
    20    9   14 ar   
    21   10   11 ar   
    22   10   81 1    
    23   11   12 ar   
    24   11   71 1    
    25   12   13 ar   
    26   12   82 1    
    27   13   14 ar   
    28   13   15 1    
    29   14   83 1    
    30   15   16 1    
    31   15   84 1    
    32   15   85 1    
    33   16   17 1    
    34   17   18 1    
    35   17   86 1    
    36   17   87 1    
    37   18   19 1    
    38   18   37 1    
    39   18   88 1    
    40   19   20 am   BACKBONE|DICT|INTERRES
    41   19   89 1    
    42   20   21 2    
    43   20   22 1    
    44   22   23 1    
    45   22   24 1    
    46   22   90 1    
    47   23   91 1    
    48   23   92 1    
    49   23   93 1    
    50   24   25 am   BACKBONE|DICT|INTERRES
    51   24   94 1    
    52   25   26 2    
    53   25   27 1    
    54   27   28 1    
    55   27   29 1    
    56   27   95 1    
    57   28   96 1    
    58   28   97 1    
    59   28   98 1    
    60   29   30 am   BACKBONE|DICT|INTERRES
    61   29   99 1    
    62   30   31 2    
    63   30   32 1    
    64   32   33 1    
    65   32   34 1    
    66   32  100 1    
    67   33  101 1    
    68   33  102 1    
    69   33  103 1    
    70   34   35 am   BACKBONE|DICT|INTERRES
    71   34  104 1    
    72   35   36 2    
    73   37   38 2    
    74   37   39 am   BACKBONE|DICT|INTERRES
    75   39   40 1    
    76   39  105 1    
    77   40   41 1    
    78   40   42 1    
    79   40  106 1    
    80   41  107 1    
    81   41  108 1    
    82   41  109 1    
    83   42   43 2    
    84   42   44 am   BACKBONE|DICT|INTERRES
    85   44   45 1    
    86   44  110 1    
    87   45   46 1    
    88   45   47 1    
    89   45  111 1    
    90   46  112 1    
    91   46  113 1    
    92   46  114 1    
    93   47   48 2    
    94   47   49 am   BACKBONE|DICT|INTERRES
    95   49   50 1    
    96   49  115 1    
    97   50   51 1    
    98   50   52 1    
    99   50  116 1    
   100   51  117 1    
   101   51  118 1    
   102   51  119 1    
   103   52   53 2    
   104   52   54 am   BACKBONE|DICT|INTERRES
   105   54   55 1    
   106   54  120 1    
   107   55   56 1    
   108   55   57 1    
   109   55  121 1    
   110   56  122 1    
   111   56  123 1    
   112   56  124 1    
   113   57   58 2    
   114   57   59 am   BACKBONE|DICT|INTERRES
   115   59   60 1    
   116   59  125 1    
   117   60   61 1    
   118   60   62 1    
   119   60  126 1    
   120   61  127 1    
   121   61  128 1    
   122   61  129 1    
   123   62   63 2    
   124   62   64 am   BACKBONE|DICT|INTERRES
   125   64   65 1    
   126   64  130 1    
   127   65   66 1    
   128   65   69 1    
   129   65  131 1    
   130   66   67 am   BACKBONE|DICT|INTERRES
   131   66   68 2    
   132   67  132 1    
   133   67  133 1    
   134   69   70 1    
   135   69  134 1    
   136   69  135 1    
   137   70   71 1    
   138   71  136 1    
   139   71  137 1    
@<TRIPOS>SUBSTRUCTURE
     1 UNK         1 GROUP             0       ****    0 ROOT    
