@<TRIPOS>MOLECULE
3R137
137   139    1
SMALL
USER_CHARGES


@<TRIPOS>ATOM
      1 CA         24.6425   -6.8601   -0.1938 C.3       0 UNK        -0.2020 
      2 C          25.6405   -5.7121   -0.1800 C.2       0 UNK         0.4855 
      3 O          26.0306   -5.2533    0.8937 O.2       0 UNK        -0.5197 
      4 N          26.0576   -5.2455   -1.3645 N.am      1 UNK        -0.4892 
      5 CA         27.0221   -4.1509   -1.5431 C.3       1 UNK         0.0835 
      6 C6         27.5650   -4.0989   -2.9925 C.3       12 UNK        -0.0855 
      7 S7         28.5399   -5.5724   -3.4487 S.3       12 UNK        -0.2931 
      8 C8         30.1344   -5.2676   -2.6158 C.3       12 UNK         0.0378 
      9 C9         30.8498   -4.0340   -3.1494 C.ar      12 UNK        -0.0802 
     10 C10        31.7069   -4.1334   -4.2503 C.ar      12 UNK        -0.0944 
     11 C11        32.3807   -3.0041   -4.7257 C.ar      12 UNK        -0.0787 
     12 C12        32.1794   -1.7683   -4.1045 C.ar      12 UNK        -0.0862 
     13 C13        31.3179   -1.6556   -3.0103 C.ar      12 UNK        -0.0733 
     14 C14        30.6715   -2.7949   -2.5257 C.ar      12 UNK        -0.0832 
     15 C15        31.1023   -0.3081   -2.3382 C.3       12 UNK         0.0240 
     16 S16        30.2577    0.8793   -3.4287 S.3       12 UNK        -0.2522 
     17 C17        28.5810    0.1650   -3.5935 C.3       12 UNK        -0.0967 
     18 CA         28.1570   -0.1044   -5.0626 C.3       5 UNK         0.0660 
     19 N          26.8638   -0.7988   -5.1448 N.am      5 UNK        -0.4015 
     20 C          26.3482   -1.3038   -6.2804 C.2       4 UNK         0.4946 
     21 O          26.9558   -1.3204   -7.3492 O.2       4 UNK        -0.5353 
     22 CA         24.8961   -1.8251   -6.2649 C.3       4 UNK         0.0277 
     23 CB         24.8439   -3.3515   -6.0999 C.3       4 UNK        -0.1981 
     24 N          24.0432   -1.1915   -5.2605 N.am      4 UNK        -0.4209 
     25 C          23.7468    0.1149   -5.2222 C.2       3 UNK         0.4942 
     26 O          24.0847    0.9141   -6.0955 O.2       3 UNK        -0.5208 
     27 CA         23.0086    0.6285   -3.9708 C.3       3 UNK         0.0250 
     28 CB         21.5028    0.7502   -4.2518 C.3       3 UNK        -0.1990 
     29 N          23.2156   -0.1818   -2.7596 N.am      3 UNK        -0.4232 
     30 C          24.4050   -0.4772   -2.2113 C.2       2 UNK         0.4993 
     31 O          25.4748   -0.1132   -2.7012 O.2       2 UNK        -0.5286 
     32 CA         24.4179   -1.3549   -0.9450 C.3       2 UNK         0.0209 
     33 CB         23.0169   -1.6904   -0.3919 C.3       2 UNK        -0.1931 
     34 N          25.1321   -2.6053   -1.2114 N.am      2 UNK        -0.4546 
     35 C          26.4609   -2.7714   -1.1362 C.2       1 UNK         0.5154 
     36 O          27.2437   -1.8964   -0.7637 O.2       1 UNK        -0.5181 
     37 C          28.1262    1.1973   -5.8915 C.2       5 UNK         0.5014 
     38 O          29.0449    1.4441   -6.6750 O.2       5 UNK        -0.5248 
     39 N          27.0553    1.9885   -5.7253 N.am      6 UNK        -0.4434 
     40 CA         26.8263    3.2323   -6.4609 C.3       6 UNK         0.0363 
     41 CB         25.6728    4.0198   -5.8193 C.3       6 UNK        -0.1936 
     42 C          26.5648    2.9835   -7.9536 C.2       6 UNK         0.5081 
     43 O          27.1203    3.7003   -8.7849 O.2       6 UNK        -0.5248 
     44 N          25.7723    1.9489   -8.2719 N.am      7 UNK        -0.4718 
     45 CA         25.4895    1.5136   -9.6450 C.3       7 UNK         0.0273 
     46 CB         24.4149    0.4164   -9.6341 C.3       7 UNK        -0.1935 
     47 C          26.7448    1.0341  -10.3963 C.2       7 UNK         0.5018 
     48 O          26.8964    1.3447  -11.5780 O.2       7 UNK        -0.5186 
     49 N          27.6365    0.3229   -9.6917 N.am      8 UNK        -0.4240 
     50 CA         28.9465   -0.1023  -10.1912 C.3       8 UNK         0.0235 
     51 CB         29.4373   -1.2968   -9.3544 C.3       8 UNK        -0.2000 
     52 C          30.0047    1.0168  -10.1817 C.2       8 UNK         0.4941 
     53 O          31.1102    0.7769  -10.6662 O.2       8 UNK        -0.5273 
     54 N          29.6877    2.1848   -9.5991 N.am      9 UNK        -0.4262 
     55 CA         30.5694    3.3380   -9.3718 C.3       9 UNK         0.0264 
     56 CB         30.9049    4.0347  -10.7073 C.3       9 UNK        -0.1955 
     57 C          31.8217    2.9726   -8.5478 C.2       9 UNK         0.5031 
     58 O          32.9289    3.3931   -8.8880 O.2       9 UNK        -0.5390 
     59 N          31.6140    2.1638   -7.4975 N.am      10 UNK        -0.4204 
     60 CA         32.6221    1.5358   -6.6338 C.3       10 UNK         0.0237 
     61 CB         33.4257    2.5890   -5.8423 C.3       10 UNK        -0.1985 
     62 C          33.5182    0.5060   -7.3568 C.2       10 UNK         0.4970 
     63 O          34.6067    0.2020   -6.8655 O.2       10 UNK        -0.4914 
     64 N          33.0226   -0.0447   -8.4732 N.am      11 UNK        -0.4285 
     65 CA         33.6379   -1.0909   -9.3052 C.3       11 UNK         0.1007 
     66 C          34.8745   -0.5960  -10.1143 C.2       11 UNK         0.5703 
     67 N          35.5512   -1.4844  -10.8318 N.am      11 UNK        -0.7361 
     68 O          35.2176    0.5847  -10.1345 O.2       11 UNK        -0.4986 
     69 C69        33.9006   -2.4308   -8.5489 C.3       12 UNK        -0.0947 
     70 S70        32.5105   -2.9788   -7.4941 S.3       12 UNK        -0.2240 
     71 C71        33.3535   -3.1150   -5.8873 C.3       12 UNK         0.0194 
     72 H72        24.3887   -7.1691   -1.2076 H         1 UNK         0.0906 
     73 H73        25.0558   -7.7222    0.3292 H         1 UNK         0.0906 
     74 H74        23.7231   -6.5642    0.3108 H         1 UNK         0.0906 
     75 H75        25.7337   -5.6863   -2.2143 H         1 UNK         0.3140 
     76 H76        27.8598   -4.3400   -0.8689 H         1 UNK         0.1085 
     77 H77        26.7371   -4.0262   -3.6948 H         1 UNK         0.0836 
     78 H78        28.1600   -3.2049   -3.1735 H         1 UNK         0.0836 
     79 H79        30.7694   -6.1444   -2.7521 H         1 UNK         0.0731 
     80 H80        29.9775   -5.1808   -1.5400 H         1 UNK         0.0731 
     81 H81        31.8565   -5.0902   -4.7319 H         1 UNK         0.1312 
     82 H82        32.6973   -0.8920   -4.4691 H         1 UNK         0.1406 
     83 H83        30.0166   -2.7142   -1.6682 H         1 UNK         0.1631 
     84 H84        32.0709    0.1051   -2.0533 H         1 UNK         0.0717 
     85 H85        30.5306   -0.4138   -1.4146 H         1 UNK         0.0717 
     86 H86        28.5288   -0.7609   -3.0204 H         1 UNK         0.0934 
     87 H87        27.8810    0.8468   -3.1077 H         1 UNK         0.0934 
     88 H88        28.9055   -0.7617   -5.5116 H         1 UNK         0.0739 
     89 H89        26.2866   -0.7582   -4.3085 H         1 UNK         0.3093 
     90 H90        24.4688   -1.5902   -7.2400 H         1 UNK         0.0818 
     91 H91        25.0589   -3.6587   -5.0789 H         1 UNK         0.0819 
     92 H92        23.8579   -3.7383   -6.3580 H         1 UNK         0.0819 
     93 H93        25.5636   -3.8459   -6.7544 H         1 UNK         0.0819 
     94 H94        23.7122   -1.7746   -4.5065 H         1 UNK         0.3041 
     95 H95        23.3986    1.6267   -3.7616 H         1 UNK         0.0784 
     96 H96        21.3188    1.3671   -5.1329 H         1 UNK         0.0793 
     97 H97        21.0455   -0.2231   -4.4344 H         1 UNK         0.0793 
     98 H98        20.9789    1.2179   -3.4179 H         1 UNK         0.0793 
     99 H99        22.3833   -0.5248   -2.3016 H         1 UNK         0.3024 
    100 H100       24.9547   -0.7896   -0.1795 H         1 UNK         0.1171 
    101 H101       22.4587   -0.7855   -0.1469 H         1 UNK         0.0786 
    102 H102       22.4222   -2.2757   -1.0945 H         1 UNK         0.0786 
    103 H103       23.0937   -2.2687    0.5294 H         1 UNK         0.0786 
    104 H104       24.5784   -3.3902   -1.5219 H         1 UNK         0.2977 
    105 H105       26.3220    1.6899   -5.0982 H         1 UNK         0.3127 
    106 H106       27.7325    3.8369   -6.3807 H         1 UNK         0.0770 
    107 H107       24.7302    3.4740   -5.8631 H         1 UNK         0.0814 
    108 H108       25.5205    4.9699   -6.3330 H         1 UNK         0.0814 
    109 H109       25.8809    4.2478   -4.7739 H         1 UNK         0.0814 
    110 H110       25.3075    1.4468   -7.5194 H         1 UNK         0.2983 
    111 H111       25.0906    2.3760  -10.1836 H         1 UNK         0.0947 
    112 H112       24.0855    0.1885  -10.6486 H         1 UNK         0.0806 
    113 H113       23.5352    0.7202   -9.0662 H         1 UNK         0.0806 
    114 H114       24.7937   -0.5099   -9.2041 H         1 UNK         0.0806 
    115 H115       27.4051    0.0437   -8.7420 H         1 UNK         0.3000 
    116 H116       28.8345   -0.4339  -11.2256 H         1 UNK         0.0850 
    117 H117       30.3817   -1.6869   -9.7354 H         1 UNK         0.0810 
    118 H118       28.7202   -2.1175   -9.3753 H         1 UNK         0.0810 
    119 H119       29.5961   -1.0196   -8.3109 H         1 UNK         0.0810 
    120 H120       28.7535    2.2829   -9.2198 H         1 UNK         0.3040 
    121 H121       29.9996    4.0428   -8.7643 H         1 UNK         0.0766 
    122 H122       31.5124    3.3998  -11.3532 H         1 UNK         0.0812 
    123 H123       31.4636    4.9560  -10.5381 H         1 UNK         0.0812 
    124 H124       29.9996    4.3007  -11.2529 H         1 UNK         0.0812 
    125 H125       30.6489    1.8969   -7.2894 H         1 UNK         0.3205 
    126 H126       32.0492    0.9577   -5.9084 H         1 UNK         0.0754 
    127 H127       34.0495    2.1153   -5.0833 H         1 UNK         0.0769 
    128 H128       32.7643    3.2848   -5.3259 H         1 UNK         0.0769 
    129 H129       34.0855    3.1669   -6.4898 H         1 UNK         0.0769 
    130 H130       32.1692    0.3390   -8.8574 H         1 UNK         0.2981 
    131 H131       32.8829   -1.2987  -10.0635 H         1 UNK         0.0541 
    132 H132       36.3453   -1.1735  -11.3693 H         1 UNK         0.3459 
    133 H133       35.2832   -2.4555  -10.8512 H         1 UNK         0.3459 
    134 H134       34.8095   -2.3494   -7.9510 H         1 UNK         0.0612 
    135 H135       34.0903   -3.2331   -9.2629 H         1 UNK         0.0612 
    136 H136       33.8886   -4.0646   -5.8433 H         1 UNK         0.0624 
    137 H137       34.1091   -2.3337   -5.7951 H         1 UNK         0.0624 
@<TRIPOS>BOND
     1    1    2 1    
     2    1   72 1    
     3    1   73 1    
     4    1   74 1    
     5    2    3 2    
     6    2    4 am   BACKBONE|DICT|INTERRES
     7    4    5 1    
     8    4   75 1    
     9    5    6 1    
    10    5   35 1    
    11    5   76 1    
    12    6    7 1    
    13    6   77 1    
    14    6   78 1    
    15    7    8 1    
    16    8    9 1    
    17    8   79 1    
    18    8   80 1    
    19    9   10 ar   
    20    9   14 ar   
    21   10   11 ar   
    22   10   81 1    
    23   11   12 ar   
    24   11   71 1    
    25   12   13 ar   
    26   12   82 1    
    27   13   14 ar   
    28   13   15 1    
    29   14   83 1    
    30   15   16 1    
    31   15   84 1    
    32   15   85 1    
    33   16   17 1    
    34   17   18 1    
    35   17   86 1    
    36   17   87 1    
    37   18   19 1    
    38   18   37 1    
    39   18   88 1    
    40   19   20 am   BACKBONE|DICT|INTERRES
    41   19   89 1    
    42   20   21 2    
    43   20   22 1    
    44   22   23 1    
    45   22   24 1    
    46   22   90 1    
    47   23   91 1    
    48   23   92 1    
    49   23   93 1    
    50   24   25 am   BACKBONE|DICT|INTERRES
    51   24   94 1    
    52   25   26 2    
    53   25   27 1    
    54   27   28 1    
    55   27   29 1    
    56   27   95 1    
    57   28   96 1    
    58   28   97 1    
    59   28   98 1    
    60   29   30 am   BACKBONE|DICT|INTERRES
    61   29   99 1    
    62   30   31 2    
    63   30   32 1    
    64   32   33 1    
    65   32   34 1    
    66   32  100 1    
    67   33  101 1    
    68   33  102 1    
    69   33  103 1    
    70   34   35 am   BACKBONE|DICT|INTERRES
    71   34  104 1    
    72   35   36 2    
    73   37   38 2    
    74   37   39 am   BACKBONE|DICT|INTERRES
    75   39   40 1    
    76   39  105 1    
    77   40   41 1    
    78   40   42 1    
    79   40  106 1    
    80   41  107 1    
    81   41  108 1    
    82   41  109 1    
    83   42   43 2    
    84   42   44 am   BACKBONE|DICT|INTERRES
    85   44   45 1    
    86   44  110 1    
    87   45   46 1    
    88   45   47 1    
    89   45  111 1    
    90   46  112 1    
    91   46  113 1    
    92   46  114 1    
    93   47   48 2    
    94   47   49 am   BACKBONE|DICT|INTERRES
    95   49   50 1    
    96   49  115 1    
    97   50   51 1    
    98   50   52 1    
    99   50  116 1    
   100   51  117 1    
   101   51  118 1    
   102   51  119 1    
   103   52   53 2    
   104   52   54 am   BACKBONE|DICT|INTERRES
   105   54   55 1    
   106   54  120 1    
   107   55   56 1    
   108   55   57 1    
   109   55  121 1    
   110   56  122 1    
   111   56  123 1    
   112   56  124 1    
   113   57   58 2    
   114   57   59 am   BACKBONE|DICT|INTERRES
   115   59   60 1    
   116   59  125 1    
   117   60   61 1    
   118   60   62 1    
   119   60  126 1    
   120   61  127 1    
   121   61  128 1    
   122   61  129 1    
   123   62   63 2    
   124   62   64 am   BACKBONE|DICT|INTERRES
   125   64   65 1    
   126   64  130 1    
   127   65   66 1    
   128   65   69 1    
   129   65  131 1    
   130   66   67 am   BACKBONE|DICT|INTERRES
   131   66   68 2    
   132   67  132 1    
   133   67  133 1    
   134   69   70 1    
   135   69  134 1    
   136   69  135 1    
   137   70   71 1    
   138   71  136 1    
   139   71  137 1    
@<TRIPOS>SUBSTRUCTURE
     1 UNK         1 GROUP             0       ****    0 ROOT    
