@<TRIPOS>MOLECULE
3R137
137   139    1
SMALL
USER_CHARGES


@<TRIPOS>ATOM
      1 CA         27.0757   -0.9738    4.1451 C.3       0 UNK        -0.2020 
      2 C          26.7873   -1.4728    2.7375 C.2       0 UNK         0.4855 
      3 O          25.8282   -2.2197    2.5402 O.2       0 UNK        -0.5197 
      4 N          27.6026   -1.0562    1.7578 N.am      1 UNK        -0.4892 
      5 CA         27.5415   -1.3908    0.3258 C.3       1 UNK         0.0835 
      6 C6         27.6175   -2.9185    0.0498 C.3       12 UNK        -0.0855 
      7 S7         28.0577   -3.2904   -1.6793 S.3       12 UNK        -0.2931 
      8 C8         29.7785   -3.8663   -1.5335 C.3       12 UNK         0.0378 
      9 C9         30.4759   -3.7708   -2.8817 C.ar      12 UNK        -0.0802 
     10 C10        31.4741   -2.8132   -3.0937 C.ar      12 UNK        -0.0944 
     11 C11        32.0520   -2.6595   -4.3576 C.ar      12 UNK        -0.0787 
     12 C12        31.6376   -3.4857   -5.4052 C.ar      12 UNK        -0.0862 
     13 C13        30.6176   -4.4227   -5.2140 C.ar      12 UNK        -0.0733 
     14 C14        30.0644   -4.5859   -3.9417 C.ar      12 UNK        -0.0832 
     15 C15        30.0279   -5.1584   -6.4122 C.3       12 UNK         0.0240 
     16 S16        28.3896   -4.4907   -6.8989 S.3       12 UNK        -0.2522 
     17 C17        28.5905   -2.7006   -6.5983 C.3       12 UNK        -0.0967 
     18 CA         27.7779   -1.7744   -7.5257 C.3       5 UNK         0.0660 
     19 N          26.3366   -2.0080   -7.4199 N.am      5 UNK        -0.4015 
     20 C          25.3836   -1.3122   -8.0561 C.2       4 UNK         0.4946 
     21 O          25.6183   -0.4495   -8.9031 O.2       4 UNK        -0.5353 
     22 CA         23.9248   -1.5666   -7.6337 C.3       4 UNK         0.0277 
     23 CB         23.2341   -2.4980   -8.6421 C.3       4 UNK        -0.1981 
     24 N          23.7564   -2.1060   -6.2757 N.am      4 UNK        -0.4209 
     25 C          24.2074   -1.5442   -5.1439 C.2       3 UNK         0.4942 
     26 O          24.8787   -0.5088   -5.1072 O.2       3 UNK        -0.5208 
     27 CA         23.9047   -2.3053   -3.8492 C.3       3 UNK         0.0250 
     28 CB         24.8034   -3.5495   -3.7264 C.3       3 UNK        -0.1990 
     29 N          24.1379   -1.4284   -2.7048 N.am      3 UNK        -0.4232 
     30 C          23.4359   -1.4301   -1.5672 C.2       2 UNK         0.4993 
     31 O          22.4997   -2.2004   -1.3423 O.2       2 UNK        -0.5286 
     32 CA         23.8868   -0.4306   -0.4861 C.3       2 UNK         0.0209 
     33 CB         22.8374   -0.2444    0.6259 C.3       2 UNK        -0.1931 
     34 N          25.1390   -0.8804    0.1208 N.am      2 UNK        -0.4546 
     35 C          26.3574   -0.7182   -0.4064 C.2       1 UNK         0.5154 
     36 O          26.5648   -0.0612   -1.4279 O.2       1 UNK        -0.5181 
     37 C          28.1804   -0.3183   -7.2085 C.2       5 UNK         0.5014 
     38 O          29.1069    0.1911   -7.8401 O.2       5 UNK        -0.5248 
     39 N          27.4994    0.3170   -6.2413 N.am      6 UNK        -0.4434 
     40 CA         27.7557    1.6990   -5.8330 C.3       6 UNK         0.0363 
     41 CB         27.1421    1.9511   -4.4470 C.3       6 UNK        -0.1936 
     42 C          27.2249    2.7153   -6.8549 C.2       6 UNK         0.5081 
     43 O          27.8495    3.7582   -7.0448 O.2       6 UNK        -0.5248 
     44 N          26.1053    2.3856   -7.5151 N.am      7 UNK        -0.4718 
     45 CA         25.5318    3.1718   -8.6104 C.3       7 UNK         0.0273 
     46 CB         24.0783    2.7361   -8.8583 C.3       7 UNK        -0.1935 
     47 C          26.3707    3.0532   -9.8931 C.2       7 UNK         0.5018 
     48 O          26.5756    4.0546  -10.5797 O.2       7 UNK        -0.5186 
     49 N          26.8655    1.8388  -10.1715 N.am      8 UNK        -0.4240 
     50 CA         27.7886    1.5426  -11.2697 C.3       8 UNK         0.0235 
     51 CB         27.8373    0.0199  -11.4786 C.3       8 UNK        -0.2000 
     52 C          29.2116    2.0891  -11.0449 C.2       8 UNK         0.4941 
     53 O          29.9376    2.2695  -12.0230 O.2       8 UNK        -0.5273 
     54 N          29.5857    2.3091   -9.7740 N.am      9 UNK        -0.4262 
     55 CA         30.9226    2.6522   -9.2722 C.3       9 UNK         0.0264 
     56 CB         31.3605    4.0511   -9.7547 C.3       9 UNK        -0.1955 
     57 C          31.9450    1.5452   -9.5950 C.2       9 UNK         0.5031 
     58 O          33.0347    1.8287  -10.0969 O.2       9 UNK        -0.5390 
     59 N          31.5535    0.2925   -9.3195 N.am      10 UNK        -0.4204 
     60 CA         32.2436   -0.9315   -9.7435 C.3       10 UNK         0.0237 
     61 CB         31.3954   -2.1505   -9.3509 C.3       10 UNK        -0.1985 
     62 C          33.6871   -1.0885   -9.2304 C.2       10 UNK         0.4970 
     63 O          34.5005   -1.6970   -9.9270 O.2       10 UNK        -0.4914 
     64 N          33.9829   -0.5374   -8.0464 N.am      11 UNK        -0.4285 
     65 CA         35.3395   -0.4855   -7.4728 C.3       11 UNK         0.1007 
     66 C          36.1947    0.7120   -7.9862 C.2       11 UNK         0.5703 
     67 N          35.6854    1.5962   -8.8373 N.am      11 UNK        -0.7361 
     68 O          37.3595    0.8357   -7.6143 O.2       11 UNK        -0.4986 
     69 C69        35.3222   -0.5550   -5.9210 C.3       12 UNK        -0.0947 
     70 S70        34.6163   -2.1196   -5.3009 S.3       12 UNK        -0.2240 
     71 C71        33.0352   -1.5285   -4.6259 C.3       12 UNK         0.0194 
     72 H72        27.2547   -1.8170    4.8117 H         1 UNK         0.0906 
     73 H73        27.9500   -0.3241    4.1784 H         1 UNK         0.0906 
     74 H74        26.2222   -0.4137    4.5263 H         1 UNK         0.0906 
     75 H75        28.3472   -0.4160    2.0005 H         1 UNK         0.3140 
     76 H76        28.4435   -0.9439   -0.0968 H         1 UNK         0.1085 
     77 H77        26.6679   -3.4066    0.2765 H         1 UNK         0.0836 
     78 H78        28.3522   -3.3826    0.7095 H         1 UNK         0.0836 
     79 H79        30.3041   -3.2673   -0.7880 H         1 UNK         0.0731 
     80 H80        29.7924   -4.8974   -1.1773 H         1 UNK         0.0731 
     81 H81        31.7690   -2.1574   -2.2859 H         1 UNK         0.1312 
     82 H82        32.0612   -3.3445   -6.3895 H         1 UNK         0.1406 
     83 H83        29.2572   -5.2909   -3.7942 H         1 UNK         0.1631 
     84 H84        29.9287   -6.2199   -6.1814 H         1 UNK         0.0717 
     85 H85        30.7008   -5.0925   -7.2687 H         1 UNK         0.0717 
     86 H86        28.3531   -2.5094   -5.5488 H         1 UNK         0.0934 
     87 H87        29.6431   -2.4537   -6.7181 H         1 UNK         0.0934 
     88 H88        28.0630   -1.9769   -8.5597 H         1 UNK         0.0739 
     89 H89        26.0512   -2.7161   -6.7604 H         1 UNK         0.3093 
     90 H90        23.4174   -0.6001   -7.6595 H         1 UNK         0.0818 
     91 H91        22.1697   -2.5973   -8.4285 H         1 UNK         0.0819 
     92 H92        23.3220   -2.1078   -9.6574 H         1 UNK         0.0819 
     93 H93        23.6740   -3.4961   -8.6379 H         1 UNK         0.0819 
     94 H94        23.2281   -2.9643   -6.2036 H         1 UNK         0.3041 
     95 H95        22.8560   -2.6096   -3.8732 H         1 UNK         0.0784 
     96 H96        24.6120   -4.2606   -4.5307 H         1 UNK         0.0793 
     97 H97        25.8610   -3.2857   -3.7684 H         1 UNK         0.0793 
     98 H98        24.6299   -4.0733   -2.7861 H         1 UNK         0.0793 
     99 H99        24.8907   -0.7582   -2.8241 H         1 UNK         0.3024 
    100 H100       24.0416    0.5378   -0.9680 H         1 UNK         0.1171 
    101 H101       21.8829    0.0825    0.2112 H         1 UNK         0.0786 
    102 H102       23.1538    0.5114    1.3451 H         1 UNK         0.0786 
    103 H103       22.6571   -1.1707    1.1731 H         1 UNK         0.0786 
    104 H104       25.0742   -1.4406    0.9671 H         1 UNK         0.2977 
    105 H105       26.7166   -0.1482   -5.7895 H         1 UNK         0.3127 
    106 H106       28.8363    1.8390   -5.7547 H         1 UNK         0.0770 
    107 H107       26.0569    1.8435   -4.4571 H         1 UNK         0.0814 
    108 H108       27.5394    1.2578   -3.7053 H         1 UNK         0.0814 
    109 H109       27.3658    2.9605   -4.0997 H         1 UNK         0.0814 
    110 H110       25.6731    1.4943   -7.3156 H         1 UNK         0.2983 
    111 H111       25.5259    4.2229   -8.3127 H         1 UNK         0.0947 
    112 H112       23.6222    3.3385   -9.6451 H         1 UNK         0.0806 
    113 H113       23.4691    2.8592   -7.9628 H         1 UNK         0.0806 
    114 H114       24.0114    1.6931   -9.1690 H         1 UNK         0.0806 
    115 H115       26.5685    1.0531   -9.5967 H         1 UNK         0.3000 
    116 H116       27.3970    2.0042  -12.1786 H         1 UNK         0.0850 
    117 H117       28.4822   -0.2399  -12.3193 H         1 UNK         0.0810 
    118 H118       26.8472   -0.3840  -11.6914 H         1 UNK         0.0810 
    119 H119       28.2255   -0.4940  -10.5986 H         1 UNK         0.0810 
    120 H120       28.9168    2.0617   -9.0560 H         1 UNK         0.3040 
    121 H121       30.8406    2.6885   -8.1848 H         1 UNK         0.0766 
    122 H122       30.6182    4.8073   -9.4992 H         1 UNK         0.0812 
    123 H123       31.5131    4.0808  -10.8339 H         1 UNK         0.0812 
    124 H124       32.3003    4.3468   -9.2870 H         1 UNK         0.0812 
    125 H125       30.6507    0.1764   -8.8606 H         1 UNK         0.3205 
    126 H126       32.2986   -0.8986  -10.8336 H         1 UNK         0.0754 
    127 H127       31.8593   -3.0785   -9.6881 H         1 UNK         0.0769 
    128 H128       30.4010   -2.1052   -9.7954 H         1 UNK         0.0769 
    129 H129       31.2794   -2.2168   -8.2712 H         1 UNK         0.0769 
    130 H130       33.2634   -0.0348   -7.5506 H         1 UNK         0.2981 
    131 H131       35.8797   -1.3714   -7.8122 H         1 UNK         0.0541 
    132 H132       34.7375    1.5151   -9.1920 H         1 UNK         0.3459 
    133 H133       36.2675    2.3546   -9.1544 H         1 UNK         0.3459 
    134 H134       34.7817    0.2960   -5.5030 H         1 UNK         0.0612 
    135 H135       36.3365   -0.4912   -5.5230 H         1 UNK         0.0612 
    136 H136       32.5748   -0.8383   -5.3342 H         1 UNK         0.0624 
    137 H137       33.2332   -0.9572   -3.7176 H         1 UNK         0.0624 
@<TRIPOS>BOND
     1    1    2 1    
     2    1   72 1    
     3    1   73 1    
     4    1   74 1    
     5    2    3 2    
     6    2    4 am   BACKBONE|DICT|INTERRES
     7    4    5 1    
     8    4   75 1    
     9    5    6 1    
    10    5   35 1    
    11    5   76 1    
    12    6    7 1    
    13    6   77 1    
    14    6   78 1    
    15    7    8 1    
    16    8    9 1    
    17    8   79 1    
    18    8   80 1    
    19    9   10 ar   
    20    9   14 ar   
    21   10   11 ar   
    22   10   81 1    
    23   11   12 ar   
    24   11   71 1    
    25   12   13 ar   
    26   12   82 1    
    27   13   14 ar   
    28   13   15 1    
    29   14   83 1    
    30   15   16 1    
    31   15   84 1    
    32   15   85 1    
    33   16   17 1    
    34   17   18 1    
    35   17   86 1    
    36   17   87 1    
    37   18   19 1    
    38   18   37 1    
    39   18   88 1    
    40   19   20 am   BACKBONE|DICT|INTERRES
    41   19   89 1    
    42   20   21 2    
    43   20   22 1    
    44   22   23 1    
    45   22   24 1    
    46   22   90 1    
    47   23   91 1    
    48   23   92 1    
    49   23   93 1    
    50   24   25 am   BACKBONE|DICT|INTERRES
    51   24   94 1    
    52   25   26 2    
    53   25   27 1    
    54   27   28 1    
    55   27   29 1    
    56   27   95 1    
    57   28   96 1    
    58   28   97 1    
    59   28   98 1    
    60   29   30 am   BACKBONE|DICT|INTERRES
    61   29   99 1    
    62   30   31 2    
    63   30   32 1    
    64   32   33 1    
    65   32   34 1    
    66   32  100 1    
    67   33  101 1    
    68   33  102 1    
    69   33  103 1    
    70   34   35 am   BACKBONE|DICT|INTERRES
    71   34  104 1    
    72   35   36 2    
    73   37   38 2    
    74   37   39 am   BACKBONE|DICT|INTERRES
    75   39   40 1    
    76   39  105 1    
    77   40   41 1    
    78   40   42 1    
    79   40  106 1    
    80   41  107 1    
    81   41  108 1    
    82   41  109 1    
    83   42   43 2    
    84   42   44 am   BACKBONE|DICT|INTERRES
    85   44   45 1    
    86   44  110 1    
    87   45   46 1    
    88   45   47 1    
    89   45  111 1    
    90   46  112 1    
    91   46  113 1    
    92   46  114 1    
    93   47   48 2    
    94   47   49 am   BACKBONE|DICT|INTERRES
    95   49   50 1    
    96   49  115 1    
    97   50   51 1    
    98   50   52 1    
    99   50  116 1    
   100   51  117 1    
   101   51  118 1    
   102   51  119 1    
   103   52   53 2    
   104   52   54 am   BACKBONE|DICT|INTERRES
   105   54   55 1    
   106   54  120 1    
   107   55   56 1    
   108   55   57 1    
   109   55  121 1    
   110   56  122 1    
   111   56  123 1    
   112   56  124 1    
   113   57   58 2    
   114   57   59 am   BACKBONE|DICT|INTERRES
   115   59   60 1    
   116   59  125 1    
   117   60   61 1    
   118   60   62 1    
   119   60  126 1    
   120   61  127 1    
   121   61  128 1    
   122   61  129 1    
   123   62   63 2    
   124   62   64 am   BACKBONE|DICT|INTERRES
   125   64   65 1    
   126   64  130 1    
   127   65   66 1    
   128   65   69 1    
   129   65  131 1    
   130   66   67 am   BACKBONE|DICT|INTERRES
   131   66   68 2    
   132   67  132 1    
   133   67  133 1    
   134   69   70 1    
   135   69  134 1    
   136   69  135 1    
   137   70   71 1    
   138   71  136 1    
   139   71  137 1    
@<TRIPOS>SUBSTRUCTURE
     1 UNK         1 GROUP             0       ****    0 ROOT    
