@<TRIPOS>MOLECULE
3R137
137   139    1
SMALL
USER_CHARGES


@<TRIPOS>ATOM
      1 CA         28.4873   -0.4655    3.2887 C.3       0 UNK        -0.2020 
      2 C          28.8150    0.1188    1.9230 C.2       0 UNK         0.4855 
      3 O          28.9962    1.3305    1.8026 O.2       0 UNK        -0.5197 
      4 N          28.8926   -0.7329    0.8922 N.am      1 UNK        -0.4892 
      5 CA         29.1693   -0.3487   -0.4989 C.3       1 UNK         0.0835 
      6 C6         29.6552   -1.5603   -1.3331 C.3       12 UNK        -0.0855 
      7 S7         28.4626   -2.9465   -1.3768 S.3       12 UNK        -0.2931 
      8 C8         29.5465   -4.3519   -1.7807 C.3       12 UNK         0.0378 
      9 C9         29.7585   -4.4831   -3.2816 C.ar      12 UNK        -0.0802 
     10 C10        30.8533   -3.8752   -3.9038 C.ar      12 UNK        -0.0944 
     11 C11        31.0485   -3.9959   -5.2884 C.ar      12 UNK        -0.0787 
     12 C12        30.1376   -4.7513   -6.0358 C.ar      12 UNK        -0.0862 
     13 C13        29.0550   -5.3848   -5.4209 C.ar      12 UNK        -0.0733 
     14 C14        28.8644   -5.2368   -4.0454 C.ar      12 UNK        -0.0832 
     15 C15        28.1133   -6.2683   -6.2240 C.3       12 UNK         0.0240 
     16 S16        26.5900   -5.3938   -6.6915 S.3       12 UNK        -0.2522 
     17 C17        26.9888   -4.7452   -8.3557 C.3       12 UNK        -0.0967 
     18 CA         26.7840   -3.2156   -8.5106 C.3       5 UNK         0.0660 
     19 N          25.5188   -2.7747   -7.9191 N.am      5 UNK        -0.4015 
     20 C          24.9057   -1.6079   -8.1487 C.2       4 UNK         0.4946 
     21 O          25.3133   -0.7613   -8.9427 O.2       4 UNK        -0.5353 
     22 CA         23.6583   -1.3187   -7.2928 C.3       4 UNK         0.0277 
     23 CB         22.4050   -1.9263   -7.9425 C.3       4 UNK        -0.1981 
     24 N          23.7777   -1.7928   -5.9055 N.am      4 UNK        -0.4209 
     25 C          24.7289   -1.3909   -5.0506 C.2       3 UNK         0.4942 
     26 O          25.6166   -0.5938   -5.3565 O.2       3 UNK        -0.5208 
     27 CA         24.7386   -2.0432   -3.6576 C.3       3 UNK         0.0250 
     28 CB         25.5460   -3.3509   -3.6967 C.3       3 UNK        -0.1990 
     29 N          25.3147   -1.1679   -2.6324 N.am      3 UNK        -0.4232 
     30 C          24.7787   -0.0096   -2.2206 C.2       2 UNK         0.4993 
     31 O          23.7095    0.4314   -2.6465 O.2       2 UNK        -0.5286 
     32 CA         25.5229    0.7822   -1.1278 C.3       2 UNK         0.0209 
     33 CB         24.6187    1.0000    0.0991 C.3       2 UNK        -0.1931 
     34 N          26.7615    0.1403   -0.6769 N.am      2 UNK        -0.4546 
     35 C          27.9837    0.3825   -1.1716 C.2       1 UNK         0.5154 
     36 O          28.1984    1.1559   -2.1045 O.2       1 UNK        -0.5181 
     37 C          28.0115   -2.4122   -8.0279 C.2       5 UNK         0.5014 
     38 O          29.0304   -2.4296   -8.7183 O.2       5 UNK        -0.5248 
     39 N          27.9047   -1.7166   -6.8873 N.am      6 UNK        -0.4434 
     40 CA         28.9075   -0.7701   -6.4036 C.3       6 UNK         0.0363 
     41 CB         28.8885   -0.7442   -4.8695 C.3       6 UNK        -0.1936 
     42 C          28.6381    0.6255   -6.9817 C.2       6 UNK         0.5081 
     43 O          29.5464    1.2459   -7.5378 O.2       6 UNK        -0.5248 
     44 N          27.3758    1.0687   -6.8707 N.am      7 UNK        -0.4718 
     45 CA         26.8714    2.3675   -7.3246 C.3       7 UNK         0.0273 
     46 CB         25.3903    2.4983   -6.9391 C.3       7 UNK        -0.1935 
     47 C          27.0612    2.6295   -8.8275 C.2       7 UNK         0.5018 
     48 O          27.2472    3.7847   -9.2136 O.2       7 UNK        -0.5186 
     49 N          27.0676    1.5668   -9.6446 N.am      8 UNK        -0.4240 
     50 CA         27.3925    1.5721  -11.0756 C.3       8 UNK         0.0235 
     51 CB         26.8934    0.2539  -11.6974 C.3       8 UNK        -0.2000 
     52 C          28.8899    1.8337  -11.3687 C.2       8 UNK         0.4941 
     53 O          29.5040    1.0897  -12.1355 O.2       8 UNK        -0.5273 
     54 N          29.4395    2.8977  -10.7651 N.am      9 UNK        -0.4262 
     55 CA         30.7988    3.4309  -10.9079 C.3       9 UNK         0.0264 
     56 CB         30.9681    4.0813  -12.2980 C.3       9 UNK        -0.1955 
     57 C          31.9149    2.4166  -10.5820 C.2       9 UNK         0.5031 
     58 O          32.9233    2.3764  -11.2919 O.2       9 UNK        -0.5390 
     59 N          31.7268    1.6245   -9.5185 N.am      10 UNK        -0.4204 
     60 CA         32.6914    0.6360   -9.0408 C.3       10 UNK         0.0237 
     61 CB         32.0962   -0.7760   -9.2124 C.3       10 UNK        -0.1985 
     62 C          33.1028    0.9957   -7.6041 C.2       10 UNK         0.4970 
     63 O          33.6945    2.0582   -7.4050 O.2       10 UNK        -0.4914 
     64 N          32.8248    0.1027   -6.6469 N.am      11 UNK        -0.4285 
     65 CA         33.1610    0.2183   -5.2199 C.3       11 UNK         0.1007 
     66 C          32.5910    1.4953   -4.5403 C.2       11 UNK         0.5703 
     67 N          33.3282    2.0791   -3.6049 N.am      11 UNK        -0.7361 
     68 O          31.4760    1.9303   -4.8158 O.2       11 UNK        -0.4986 
     69 C69        32.7167   -1.0467   -4.4411 C.3       12 UNK        -0.0947 
     70 S70        33.5252   -2.5750   -5.0227 S.3       12 UNK        -0.2240 
     71 C71        32.2140   -3.3447   -6.0387 C.3       12 UNK         0.0194 
     72 H72        27.5658   -0.0283    3.6724 H         1 UNK         0.0906 
     73 H73        28.3591   -1.5472    3.2502 H         1 UNK         0.0906 
     74 H74        29.2885   -0.2443    3.9934 H         1 UNK         0.0906 
     75 H75        28.7393   -1.7212    1.0421 H         1 UNK         0.3140 
     76 H76        29.9883    0.3744   -0.4778 H         1 UNK         0.1085 
     77 H77        29.8986   -1.2561   -2.3499 H         1 UNK         0.0836 
     78 H78        30.5940   -1.9216   -0.9107 H         1 UNK         0.0836 
     79 H79        30.5018   -4.2576   -1.2624 H         1 UNK         0.0731 
     80 H80        29.0880   -5.2641   -1.3958 H         1 UNK         0.0731 
     81 H81        31.5412   -3.3070   -3.2959 H         1 UNK         0.1312 
     82 H82        30.2800   -4.8574   -7.1029 H         1 UNK         0.1406 
     83 H83        28.0220   -5.7179   -3.5666 H         1 UNK         0.1631 
     84 H84        27.8383   -7.1363   -5.6228 H         1 UNK         0.0717 
     85 H85        28.6115   -6.6689   -7.1080 H         1 UNK         0.0717 
     86 H86        27.9989   -5.0363   -8.6506 H         1 UNK         0.0934 
     87 H87        26.3316   -5.2598   -9.0585 H         1 UNK         0.0934 
     88 H88        26.7130   -3.0114   -9.5815 H         1 UNK         0.0739 
     89 H89        25.1181   -3.4080   -7.2420 H         1 UNK         0.3093 
     90 H90        23.5296   -0.2356   -7.2577 H         1 UNK         0.0818 
     91 H91        21.5012   -1.6448   -7.4018 H         1 UNK         0.0819 
     92 H92        22.2885   -1.5733   -8.9683 H         1 UNK         0.0819 
     93 H93        22.4516   -3.0155   -7.9763 H         1 UNK         0.0819 
     94 H94        23.0854   -2.4576   -5.5901 H         1 UNK         0.3041 
     95 H95        23.7102   -2.2681   -3.3678 H         1 UNK         0.0784 
     96 H96        25.1007   -4.0669   -4.3879 H         1 UNK         0.0793 
     97 H97        26.5751   -3.1815   -4.0187 H         1 UNK         0.0793 
     98 H98        25.5783   -3.8298   -2.7178 H         1 UNK         0.0793 
     99 H99        26.2062   -1.4443   -2.2472 H         1 UNK         0.3024 
    100 H100       25.7568    1.7606   -1.5542 H         1 UNK         0.1171 
    101 H101       23.7061    1.5320   -0.1734 H         1 UNK         0.0786 
    102 H102       25.1215    1.5967    0.8607 H         1 UNK         0.0786 
    103 H103       24.3213    0.0546    0.5547 H         1 UNK         0.0786 
    104 H104       26.6844   -0.5170    0.0861 H         1 UNK         0.2977 
    105 H105       27.0188   -1.7087   -6.3969 H         1 UNK         0.3127 
    106 H106       29.9011   -1.0901   -6.7173 H         1 UNK         0.0770 
    107 H107       27.9358   -0.4091   -4.4641 H         1 UNK         0.0814 
    108 H108       29.6427   -0.0591   -4.4841 H         1 UNK         0.0814 
    109 H109       29.0882   -1.7345   -4.4634 H         1 UNK         0.0814 
    110 H110       26.7090    0.4806   -6.3737 H         1 UNK         0.2983 
    111 H111       27.4358    3.1337   -6.7892 H         1 UNK         0.0947 
    112 H112       25.0068    3.4877   -7.1923 H         1 UNK         0.0806 
    113 H113       25.2421    2.3556   -5.8683 H         1 UNK         0.0806 
    114 H114       24.7759    1.7665   -7.4634 H         1 UNK         0.0806 
    115 H115       26.8347    0.6657   -9.2411 H         1 UNK         0.3000 
    116 H116       26.8370    2.3882  -11.5421 H         1 UNK         0.0850 
    117 H117       27.0669    0.2335  -12.7741 H         1 UNK         0.0810 
    118 H118       25.8221    0.1236  -11.5429 H         1 UNK         0.0810 
    119 H119       27.4007   -0.6098  -11.2650 H         1 UNK         0.0810 
    120 H120       28.8238    3.4230  -10.1477 H         1 UNK         0.3040 
    121 H121       30.8910    4.2227  -10.1631 H         1 UNK         0.0766 
    122 H122       31.9285    4.5919  -12.3793 H         1 UNK         0.0812 
    123 H123       30.1927    4.8238  -12.4864 H         1 UNK         0.0812 
    124 H124       30.9242    3.3400  -13.0968 H         1 UNK         0.0812 
    125 H125       30.8850    1.7235   -8.9550 H         1 UNK         0.3205 
    126 H126       33.6102    0.6746   -9.6292 H         1 UNK         0.0754 
    127 H127       32.7873   -1.5485   -8.8726 H         1 UNK         0.0769 
    128 H128       31.8849   -0.9804  -10.2623 H         1 UNK         0.0769 
    129 H129       31.1591   -0.8900   -8.6702 H         1 UNK         0.0769 
    130 H130       32.3329   -0.7345   -6.9110 H         1 UNK         0.2981 
    131 H131       34.2498    0.2805   -5.1681 H         1 UNK         0.0541 
    132 H132       32.9682    2.8990   -3.1424 H         1 UNK         0.3459 
    133 H133       34.2395    1.7251   -3.3593 H         1 UNK         0.3459 
    134 H134       32.9562   -0.9443   -3.3810 H         1 UNK         0.0612 
    135 H135       31.6365   -1.1690   -4.4946 H         1 UNK         0.0612 
    136 H136       32.6926   -4.1073   -6.6549 H         1 UNK         0.0624 
    137 H137       31.8141   -2.6047   -6.7307 H         1 UNK         0.0624 
@<TRIPOS>BOND
     1    1    2 1    
     2    1   72 1    
     3    1   73 1    
     4    1   74 1    
     5    2    3 2    
     6    2    4 am   BACKBONE|DICT|INTERRES
     7    4    5 1    
     8    4   75 1    
     9    5    6 1    
    10    5   35 1    
    11    5   76 1    
    12    6    7 1    
    13    6   77 1    
    14    6   78 1    
    15    7    8 1    
    16    8    9 1    
    17    8   79 1    
    18    8   80 1    
    19    9   10 ar   
    20    9   14 ar   
    21   10   11 ar   
    22   10   81 1    
    23   11   12 ar   
    24   11   71 1    
    25   12   13 ar   
    26   12   82 1    
    27   13   14 ar   
    28   13   15 1    
    29   14   83 1    
    30   15   16 1    
    31   15   84 1    
    32   15   85 1    
    33   16   17 1    
    34   17   18 1    
    35   17   86 1    
    36   17   87 1    
    37   18   19 1    
    38   18   37 1    
    39   18   88 1    
    40   19   20 am   BACKBONE|DICT|INTERRES
    41   19   89 1    
    42   20   21 2    
    43   20   22 1    
    44   22   23 1    
    45   22   24 1    
    46   22   90 1    
    47   23   91 1    
    48   23   92 1    
    49   23   93 1    
    50   24   25 am   BACKBONE|DICT|INTERRES
    51   24   94 1    
    52   25   26 2    
    53   25   27 1    
    54   27   28 1    
    55   27   29 1    
    56   27   95 1    
    57   28   96 1    
    58   28   97 1    
    59   28   98 1    
    60   29   30 am   BACKBONE|DICT|INTERRES
    61   29   99 1    
    62   30   31 2    
    63   30   32 1    
    64   32   33 1    
    65   32   34 1    
    66   32  100 1    
    67   33  101 1    
    68   33  102 1    
    69   33  103 1    
    70   34   35 am   BACKBONE|DICT|INTERRES
    71   34  104 1    
    72   35   36 2    
    73   37   38 2    
    74   37   39 am   BACKBONE|DICT|INTERRES
    75   39   40 1    
    76   39  105 1    
    77   40   41 1    
    78   40   42 1    
    79   40  106 1    
    80   41  107 1    
    81   41  108 1    
    82   41  109 1    
    83   42   43 2    
    84   42   44 am   BACKBONE|DICT|INTERRES
    85   44   45 1    
    86   44  110 1    
    87   45   46 1    
    88   45   47 1    
    89   45  111 1    
    90   46  112 1    
    91   46  113 1    
    92   46  114 1    
    93   47   48 2    
    94   47   49 am   BACKBONE|DICT|INTERRES
    95   49   50 1    
    96   49  115 1    
    97   50   51 1    
    98   50   52 1    
    99   50  116 1    
   100   51  117 1    
   101   51  118 1    
   102   51  119 1    
   103   52   53 2    
   104   52   54 am   BACKBONE|DICT|INTERRES
   105   54   55 1    
   106   54  120 1    
   107   55   56 1    
   108   55   57 1    
   109   55  121 1    
   110   56  122 1    
   111   56  123 1    
   112   56  124 1    
   113   57   58 2    
   114   57   59 am   BACKBONE|DICT|INTERRES
   115   59   60 1    
   116   59  125 1    
   117   60   61 1    
   118   60   62 1    
   119   60  126 1    
   120   61  127 1    
   121   61  128 1    
   122   61  129 1    
   123   62   63 2    
   124   62   64 am   BACKBONE|DICT|INTERRES
   125   64   65 1    
   126   64  130 1    
   127   65   66 1    
   128   65   69 1    
   129   65  131 1    
   130   66   67 am   BACKBONE|DICT|INTERRES
   131   66   68 2    
   132   67  132 1    
   133   67  133 1    
   134   69   70 1    
   135   69  134 1    
   136   69  135 1    
   137   70   71 1    
   138   71  136 1    
   139   71  137 1    
@<TRIPOS>SUBSTRUCTURE
     1 UNK         1 GROUP             0       ****    0 ROOT    
