@<TRIPOS>MOLECULE
3R137
137   139    1
SMALL
USER_CHARGES


@<TRIPOS>ATOM
      1 CA         32.2212   -1.8084    2.3983 C.3       0 UNK        -0.2020 
      2 C          31.0227   -1.8413    1.4617 C.2       0 UNK         0.4855 
      3 O          30.5774   -0.7900    1.0016 O.2       0 UNK        -0.5197 
      4 N          30.5054   -3.0405    1.1696 N.am      1 UNK        -0.4892 
      5 CA         29.3299   -3.2688    0.3206 C.3       1 UNK         0.0835 
      6 C6         29.2098   -4.7567   -0.0998 C.3       12 UNK        -0.0855 
      7 S7         30.7220   -5.3897   -0.9065 S.3       12 UNK        -0.2931 
      8 C8         30.1239   -5.8213   -2.5772 C.3       12 UNK         0.0378 
      9 C9         29.7051   -4.6419   -3.4569 C.ar      12 UNK        -0.0802 
     10 C10        30.2117   -3.3466   -3.2732 C.ar      12 UNK        -0.0944 
     11 C11        29.8169   -2.3010   -4.1127 C.ar      12 UNK        -0.0787 
     12 C12        28.9308   -2.5616   -5.1589 C.ar      12 UNK        -0.0862 
     13 C13        28.4472   -3.8506   -5.3806 C.ar      12 UNK        -0.0733 
     14 C14        28.8240   -4.8829   -4.5179 C.ar      12 UNK        -0.0832 
     15 C15        27.5659   -4.1209   -6.5885 C.3       12 UNK         0.0240 
     16 S16        25.8698   -3.5157   -6.3363 S.3       12 UNK        -0.2522 
     17 C17        25.4133   -3.0664   -8.0513 C.3       12 UNK        -0.0967 
     18 CA         25.2837   -1.5393   -8.2804 C.3       5 UNK         0.0660 
     19 N          24.2176   -0.9713   -7.4539 N.am      5 UNK        -0.4015 
     20 C          23.7450    0.2813   -7.5063 C.2       4 UNK         0.4946 
     21 O          24.0662    1.0971   -8.3719 O.2       4 UNK        -0.5353 
     22 CA         22.8049    0.7183   -6.3625 C.3       4 UNK         0.0277 
     23 CB         21.3492    0.7582   -6.8549 C.3       4 UNK        -0.1981 
     24 N          22.8791   -0.1012   -5.1398 N.am      4 UNK        -0.4209 
     25 C          23.9888   -0.3526   -4.4282 C.2       3 UNK         0.4942 
     26 O          25.1054    0.0701   -4.7406 O.2       3 UNK        -0.5208 
     27 CA         23.8393   -1.2593   -3.1979 C.3       3 UNK         0.0250 
     28 CB         23.1477   -2.5973   -3.5290 C.3       3 UNK        -0.1990 
     29 N          25.1715   -1.5156   -2.6571 N.am      3 UNK        -0.4232 
     30 C          25.4646   -1.7307   -1.3732 C.2       2 UNK         0.4993 
     31 O          24.6168   -1.8044   -0.4777 O.2       2 UNK        -0.5286 
     32 CA         26.9569   -1.8574   -1.0275 C.3       2 UNK         0.0209 
     33 CB         27.6927   -0.5271   -1.2944 C.3       2 UNK        -0.1931 
     34 N          27.0565   -2.2101    0.3882 N.am      2 UNK        -0.4546 
     35 C          28.0450   -2.8170    1.0554 C.2       1 UNK         0.5154 
     36 O          27.9357   -3.0647    2.2580 O.2       1 UNK        -0.5181 
     37 C          26.6440   -0.8119   -8.1389 C.2       5 UNK         0.5014 
     38 O          27.4891   -0.9738   -9.0188 O.2       5 UNK        -0.5248 
     39 N          26.8336   -0.0030   -7.0812 N.am      6 UNK        -0.4434 
     40 CA         27.9927    0.8671   -6.8408 C.3       6 UNK         0.0363 
     41 CB         27.7406    1.7026   -5.5762 C.3       6 UNK        -0.1936 
     42 C          28.3565    1.7943   -8.0107 C.2       6 UNK         0.5081 
     43 O          29.5410    2.0643   -8.2098 O.2       6 UNK        -0.5248 
     44 N          27.3485    2.2372   -8.7748 N.am      7 UNK        -0.4718 
     45 CA         27.5206    3.0471   -9.9825 C.3       7 UNK         0.0273 
     46 CB         26.1638    3.6486  -10.3816 C.3       7 UNK        -0.1935 
     47 C          28.1292    2.2629  -11.1596 C.2       7 UNK         0.5018 
     48 O          28.8365    2.8582  -11.9726 O.2       7 UNK        -0.5186 
     49 N          27.8517    0.9535  -11.2309 N.am      8 UNK        -0.4240 
     50 CA         28.3931    0.0431  -12.2420 C.3       8 UNK         0.0235 
     51 CB         27.3852   -1.0865  -12.5129 C.3       8 UNK        -0.2000 
     52 C          29.7487   -0.5290  -11.8035 C.2       8 UNK         0.4941 
     53 O          30.6630   -0.6174  -12.6233 O.2       8 UNK        -0.5273 
     54 N          29.8593   -0.8877  -10.5162 N.am      9 UNK        -0.4262 
     55 CA         31.0808   -1.3889   -9.8806 C.3       9 UNK         0.0264 
     56 CB         30.7158   -2.0128   -8.5240 C.3       9 UNK        -0.1955 
     57 C          32.1739   -0.3172   -9.7079 C.2       9 UNK         0.5031 
     58 O          33.3426   -0.6798   -9.5663 O.2       9 UNK        -0.5390 
     59 N          31.7766    0.9645   -9.7249 N.am      10 UNK        -0.4204 
     60 CA         32.5959    2.1662   -9.5420 C.3       10 UNK         0.0237 
     61 CB         33.6368    2.3151  -10.6729 C.3       10 UNK        -0.1985 
     62 C          33.2045    2.2347   -8.1301 C.2       10 UNK         0.4970 
     63 O          34.4079    2.4586   -7.9831 O.2       10 UNK        -0.4914 
     64 N          32.3518    2.0375   -7.1158 N.am      11 UNK        -0.4285 
     65 CA         32.7295    2.0969   -5.6926 C.3       11 UNK         0.1007 
     66 C          32.9995    3.5350   -5.1595 C.2       11 UNK         0.5703 
     67 N          32.6158    4.5926   -5.8658 N.am      11 UNK        -0.7361 
     68 O          33.5761    3.6928   -4.0859 O.2       11 UNK        -0.4986 
     69 C69        31.7099    1.3624   -4.7845 C.3       12 UNK        -0.0947 
     70 S70        31.5103   -0.3989   -5.2014 S.3       12 UNK        -0.2240 
     71 C71        30.3403   -0.8893   -3.8985 C.3       12 UNK         0.0194 
     72 H72        33.0724   -1.3431    1.9019 H         1 UNK         0.0906 
     73 H73        31.9852   -1.2257    3.2884 H         1 UNK         0.0906 
     74 H74        32.5188   -2.8075    2.7160 H         1 UNK         0.0906 
     75 H75        30.9070   -3.8713    1.5803 H         1 UNK         0.3140 
     76 H76        29.4678   -2.6697   -0.5777 H         1 UNK         0.1085 
     77 H77        29.0105   -5.3864    0.7699 H         1 UNK         0.0836 
     78 H78        28.3589   -4.8936   -0.7700 H         1 UNK         0.0836 
     79 H79        30.9185   -6.3620   -3.0929 H         1 UNK         0.0731 
     80 H80        29.2942   -6.5226   -2.4730 H         1 UNK         0.0731 
     81 H81        30.9189   -3.1453   -2.4812 H         1 UNK         0.1312 
     82 H82        28.6323   -1.7664   -5.8224 H         1 UNK         0.1406 
     83 H83        28.4503   -5.8836   -4.6894 H         1 UNK         0.1631 
     84 H84        27.5352   -5.1863   -6.8215 H         1 UNK         0.0717 
     85 H85        28.0133   -3.6310   -7.4543 H         1 UNK         0.0717 
     86 H86        26.1219   -3.4980   -8.7610 H         1 UNK         0.0934 
     87 H87        24.4613   -3.5493   -8.2779 H         1 UNK         0.0934 
     88 H88        24.9768   -1.3918   -9.3179 H         1 UNK         0.0739 
     89 H89        23.9038   -1.5574   -6.6948 H         1 UNK         0.3093 
     90 H90        23.1002    1.7326   -6.0861 H         1 UNK         0.0818 
     91 H91        20.6843    1.1771   -6.0993 H         1 UNK         0.0819 
     92 H92        21.2544    1.3815   -7.7455 H         1 UNK         0.0819 
     93 H93        20.9828   -0.2362   -7.1132 H         1 UNK         0.0819 
     94 H94        22.0050   -0.4880   -4.8129 H         1 UNK         0.3041 
     95 H95        23.2458   -0.7134   -2.4614 H         1 UNK         0.0784 
     96 H96        22.1259   -2.4485   -3.8785 H         1 UNK         0.0793 
     97 H97        23.6839   -3.1490   -4.3013 H         1 UNK         0.0793 
     98 H98        23.0888   -3.2376   -2.6485 H         1 UNK         0.0793 
     99 H99        25.9156   -1.3747   -3.3294 H         1 UNK         0.3024 
    100 H100       27.3734   -2.6550   -1.6469 H         1 UNK         0.1171 
    101 H101       27.2684    0.2868   -0.7050 H         1 UNK         0.0786 
    102 H102       28.7534   -0.5826   -1.0555 H         1 UNK         0.0786 
    103 H103       27.6197   -0.2368   -2.3427 H         1 UNK         0.0786 
    104 H104       26.1967   -2.0095    0.8854 H         1 UNK         0.2977 
    105 H105       26.1062    0.0348   -6.3705 H         1 UNK         0.3127 
    106 H106       28.8622    0.2354   -6.6667 H         1 UNK         0.0770 
    107 H107       26.8240    2.2880   -5.6600 H         1 UNK         0.0814 
    108 H108       28.5545    2.4040   -5.3922 H         1 UNK         0.0814 
    109 H109       27.6487    1.0709   -4.6935 H         1 UNK         0.0814 
    110 H110       26.4039    1.9623   -8.5362 H         1 UNK         0.2983 
    111 H111       28.2038    3.8667   -9.7479 H         1 UNK         0.0947 
    112 H112       26.2582    4.2697  -11.2735 H         1 UNK         0.0806 
    113 H113       25.7619    4.2804   -9.5892 H         1 UNK         0.0806 
    114 H114       25.4265    2.8741  -10.5983 H         1 UNK         0.0806 
    115 H115       27.3218    0.5295  -10.4794 H         1 UNK         0.3000 
    116 H116       28.5448    0.5893  -13.1759 H         1 UNK         0.0850 
    117 H117       27.7588   -1.7638  -13.2821 H         1 UNK         0.0810 
    118 H118       26.4329   -0.6903  -12.8658 H         1 UNK         0.0810 
    119 H119       27.1895   -1.6836  -11.6215 H         1 UNK         0.0810 
    120 H120       29.0264   -0.8435   -9.9297 H         1 UNK         0.3040 
    121 H121       31.4945   -2.1739  -10.5171 H         1 UNK         0.0766 
    122 H122       30.2475   -1.2852   -7.8622 H         1 UNK         0.0812 
    123 H123       31.6011   -2.3945   -8.0134 H         1 UNK         0.0812 
    124 H124       30.0262   -2.8476   -8.6452 H         1 UNK         0.0812 
    125 H125       30.7790    1.1356   -9.7542 H         1 UNK         0.3205 
    126 H126       31.9107    3.0121   -9.6182 H         1 UNK         0.0754 
    127 H127       34.1560    3.2715  -10.6001 H         1 UNK         0.0769 
    128 H128       33.1627    2.2773  -11.6538 H         1 UNK         0.0769 
    129 H129       34.3947    1.5320  -10.6365 H         1 UNK         0.0769 
    130 H130       31.3702    1.8915   -7.3256 H         1 UNK         0.2981 
    131 H131       33.6795    1.5679   -5.5932 H         1 UNK         0.0541 
    132 H132       32.1375    4.4753   -6.7441 H         1 UNK         0.3459 
    133 H133       32.8019    5.5171   -5.5103 H         1 UNK         0.3459 
    134 H134       30.7357    1.8478   -4.8408 H         1 UNK         0.0612 
    135 H135       32.0213    1.4171   -3.7394 H         1 UNK         0.0612 
    136 H136       29.5013   -0.1943   -3.8903 H         1 UNK         0.0624 
    137 H137       30.8272   -0.7995   -2.9261 H         1 UNK         0.0624 
@<TRIPOS>BOND
     1    1    2 1    
     2    1   72 1    
     3    1   73 1    
     4    1   74 1    
     5    2    3 2    
     6    2    4 am   BACKBONE|DICT|INTERRES
     7    4    5 1    
     8    4   75 1    
     9    5    6 1    
    10    5   35 1    
    11    5   76 1    
    12    6    7 1    
    13    6   77 1    
    14    6   78 1    
    15    7    8 1    
    16    8    9 1    
    17    8   79 1    
    18    8   80 1    
    19    9   10 ar   
    20    9   14 ar   
    21   10   11 ar   
    22   10   81 1    
    23   11   12 ar   
    24   11   71 1    
    25   12   13 ar   
    26   12   82 1    
    27   13   14 ar   
    28   13   15 1    
    29   14   83 1    
    30   15   16 1    
    31   15   84 1    
    32   15   85 1    
    33   16   17 1    
    34   17   18 1    
    35   17   86 1    
    36   17   87 1    
    37   18   19 1    
    38   18   37 1    
    39   18   88 1    
    40   19   20 am   BACKBONE|DICT|INTERRES
    41   19   89 1    
    42   20   21 2    
    43   20   22 1    
    44   22   23 1    
    45   22   24 1    
    46   22   90 1    
    47   23   91 1    
    48   23   92 1    
    49   23   93 1    
    50   24   25 am   BACKBONE|DICT|INTERRES
    51   24   94 1    
    52   25   26 2    
    53   25   27 1    
    54   27   28 1    
    55   27   29 1    
    56   27   95 1    
    57   28   96 1    
    58   28   97 1    
    59   28   98 1    
    60   29   30 am   BACKBONE|DICT|INTERRES
    61   29   99 1    
    62   30   31 2    
    63   30   32 1    
    64   32   33 1    
    65   32   34 1    
    66   32  100 1    
    67   33  101 1    
    68   33  102 1    
    69   33  103 1    
    70   34   35 am   BACKBONE|DICT|INTERRES
    71   34  104 1    
    72   35   36 2    
    73   37   38 2    
    74   37   39 am   BACKBONE|DICT|INTERRES
    75   39   40 1    
    76   39  105 1    
    77   40   41 1    
    78   40   42 1    
    79   40  106 1    
    80   41  107 1    
    81   41  108 1    
    82   41  109 1    
    83   42   43 2    
    84   42   44 am   BACKBONE|DICT|INTERRES
    85   44   45 1    
    86   44  110 1    
    87   45   46 1    
    88   45   47 1    
    89   45  111 1    
    90   46  112 1    
    91   46  113 1    
    92   46  114 1    
    93   47   48 2    
    94   47   49 am   BACKBONE|DICT|INTERRES
    95   49   50 1    
    96   49  115 1    
    97   50   51 1    
    98   50   52 1    
    99   50  116 1    
   100   51  117 1    
   101   51  118 1    
   102   51  119 1    
   103   52   53 2    
   104   52   54 am   BACKBONE|DICT|INTERRES
   105   54   55 1    
   106   54  120 1    
   107   55   56 1    
   108   55   57 1    
   109   55  121 1    
   110   56  122 1    
   111   56  123 1    
   112   56  124 1    
   113   57   58 2    
   114   57   59 am   BACKBONE|DICT|INTERRES
   115   59   60 1    
   116   59  125 1    
   117   60   61 1    
   118   60   62 1    
   119   60  126 1    
   120   61  127 1    
   121   61  128 1    
   122   61  129 1    
   123   62   63 2    
   124   62   64 am   BACKBONE|DICT|INTERRES
   125   64   65 1    
   126   64  130 1    
   127   65   66 1    
   128   65   69 1    
   129   65  131 1    
   130   66   67 am   BACKBONE|DICT|INTERRES
   131   66   68 2    
   132   67  132 1    
   133   67  133 1    
   134   69   70 1    
   135   69  134 1    
   136   69  135 1    
   137   70   71 1    
   138   71  136 1    
   139   71  137 1    
@<TRIPOS>SUBSTRUCTURE
     1 UNK         1 GROUP             0       ****    0 ROOT    
