@<TRIPOS>MOLECULE
3R137
137   139    1
SMALL
USER_CHARGES


@<TRIPOS>ATOM
      1 CA         28.0307    1.6250    1.3378 C.3       0 UNK        -0.2020 
      2 C          28.2690    0.1883    1.7967 C.2       0 UNK         0.4855 
      3 O          28.4018   -0.0439    2.9965 O.2       0 UNK        -0.5197 
      4 N          28.3402   -0.8077    0.9008 N.am      1 UNK        -0.4892 
      5 CA         28.1663   -0.7218   -0.5575 C.3       1 UNK         0.0835 
      6 C6         28.6022   -2.0355   -1.2538 C.3       12 UNK        -0.0855 
      7 S7         30.4121   -2.2405   -1.1892 S.3       12 UNK        -0.2931 
      8 C8         30.6457   -3.8338   -2.0438 C.3       12 UNK         0.0378 
      9 C9         30.4376   -3.7508   -3.5531 C.ar      12 UNK        -0.0802 
     10 C10        31.2055   -2.8762   -4.3308 C.ar      12 UNK        -0.0944 
     11 C11        31.0474   -2.8355   -5.7196 C.ar      12 UNK        -0.0787 
     12 C12        30.1340   -3.6957   -6.3356 C.ar      12 UNK        -0.0862 
     13 C13        29.3599   -4.5734   -5.5723 C.ar      12 UNK        -0.0733 
     14 C14        29.5095   -4.5891   -4.1811 C.ar      12 UNK        -0.0832 
     15 C15        28.3877   -5.5306   -6.2479 C.3       12 UNK         0.0240 
     16 S16        26.7817   -4.7485   -6.6011 S.3       12 UNK        -0.2522 
     17 C17        26.9754   -4.1919   -8.3346 C.3       12 UNK        -0.0967 
     18 CA         26.5685   -2.7172   -8.5832 C.3       5 UNK         0.0660 
     19 N          25.2374   -2.4044   -8.0569 N.am      5 UNK        -0.4015 
     20 C          24.5694   -1.2656   -8.2864 C.2       4 UNK         0.4946 
     21 O          24.9722   -0.3767   -9.0361 O.2       4 UNK        -0.5353 
     22 CA         23.2514   -1.0628   -7.5195 C.3       4 UNK         0.0277 
     23 CB         22.0632   -1.5698   -8.3519 C.3       4 UNK        -0.1981 
     24 N          23.2318   -1.6975   -6.1958 N.am      4 UNK        -0.4209 
     25 C          24.0399   -1.3692   -5.1783 C.2       3 UNK         0.4942 
     26 O          24.9263   -0.5141   -5.2516 O.2       3 UNK        -0.5208 
     27 CA         23.8555   -2.1672   -3.8838 C.3       3 UNK         0.0250 
     28 CB         24.7126   -3.4453   -3.9030 C.3       3 UNK        -0.1990 
     29 N          24.2339   -1.3417   -2.7408 N.am      3 UNK        -0.4232 
     30 C          23.7504   -1.4746   -1.5002 C.2       2 UNK         0.4993 
     31 O          22.9232   -2.3314   -1.1809 O.2       2 UNK        -0.5286 
     32 CA         24.3091   -0.5125   -0.4330 C.3       2 UNK         0.0209 
     33 CB         23.5473   -0.5972    0.9036 C.3       2 UNK        -0.1931 
     34 N          25.7298   -0.7676   -0.1814 N.am      2 UNK        -0.4546 
     35 C          26.7287   -0.3425   -0.9653 C.2       1 UNK         0.5154 
     36 O          26.5472    0.3490   -1.9665 O.2       1 UNK        -0.5181 
     37 C          27.6424   -1.7301   -8.0878 C.2       5 UNK         0.5014 
     38 O          28.5011   -1.3321   -8.8748 O.2       5 UNK        -0.5248 
     39 N          27.5566   -1.3216   -6.8151 N.am      6 UNK        -0.4434 
     40 CA         28.4519   -0.3357   -6.2169 C.3       6 UNK         0.0363 
     41 CB         28.3938   -0.4334   -4.6922 C.3       6 UNK        -0.1936 
     42 C          28.1575    1.0836   -6.7037 C.2       6 UNK         0.5081 
     43 O          29.0995    1.8234   -6.9808 O.2       6 UNK        -0.5248 
     44 N          26.8703    1.4220   -6.8620 N.am      7 UNK        -0.4718 
     45 CA         26.4287    2.6846   -7.4630 C.3       7 UNK         0.0273 
     46 CB         24.8994    2.7988   -7.3639 C.3       7 UNK        -0.1935 
     47 C          26.9015    2.8488   -8.9207 C.2       7 UNK         0.5018 
     48 O          27.2445    3.9614   -9.3219 O.2       7 UNK        -0.5186 
     49 N          26.9300    1.7387   -9.6709 N.am      8 UNK        -0.4240 
     50 CA         27.4406    1.6679  -11.0366 C.3       8 UNK         0.0235 
     51 CB         26.8746    0.4180  -11.7331 C.3       8 UNK        -0.2000 
     52 C          28.9779    1.6922  -11.1041 C.2       8 UNK         0.4941 
     53 O          29.5342    2.5781  -11.7545 O.2       8 UNK        -0.5273 
     54 N          29.6365    0.6986  -10.4885 N.am      9 UNK        -0.4262 
     55 CA         31.0577    0.4089  -10.7124 C.3       9 UNK         0.0264 
     56 CB         31.2742   -1.1136  -10.6781 C.3       9 UNK        -0.1955 
     57 C          32.0264    1.1151   -9.7497 C.2       9 UNK         0.5031 
     58 O          33.2232    1.1333  -10.0442 O.2       9 UNK        -0.5390 
     59 N          31.5355    1.6624   -8.6270 N.am      10 UNK        -0.4204 
     60 CA         32.2656    2.3859   -7.5700 C.3       10 UNK         0.0237 
     61 CB         32.9484    3.6557   -8.1165 C.3       10 UNK        -0.1985 
     62 C          33.2524    1.5353   -6.7458 C.2       10 UNK         0.4970 
     63 O          33.2380    1.6351   -5.5189 O.2       10 UNK        -0.4914 
     64 N          34.0818    0.7264   -7.4172 N.am      11 UNK        -0.4285 
     65 CA         35.1247   -0.1493   -6.8470 C.3       11 UNK         0.1007 
     66 C          36.2822    0.6063   -6.1218 C.2       11 UNK         0.5703 
     67 N          36.4906    1.8932   -6.3758 N.am      11 UNK        -0.7361 
     68 O          37.0289    0.0162   -5.3439 O.2       11 UNK        -0.4986 
     69 C69        34.5458   -1.3273   -6.0060 C.3       12 UNK        -0.0947 
     70 S70        33.4822   -2.4326   -6.9944 S.3       12 UNK        -0.2240 
     71 C71        31.8260   -1.8324   -6.5548 C.3       12 UNK         0.0194 
     72 H72        28.6398    1.8819    0.4724 H         1 UNK         0.0906 
     73 H73        26.9810    1.7809    1.0908 H         1 UNK         0.0906 
     74 H74        28.2900    2.3230    2.1337 H         1 UNK         0.0906 
     75 H75        28.5409   -1.7357    1.2460 H         1 UNK         0.3140 
     76 H76        28.8096    0.0773   -0.9314 H         1 UNK         0.1085 
     77 H77        28.1234   -2.9001   -0.7900 H         1 UNK         0.0836 
     78 H78        28.2968   -2.0521   -2.2992 H         1 UNK         0.0836 
     79 H79        29.9851   -4.5775   -1.5953 H         1 UNK         0.0731 
     80 H80        31.6631   -4.1799   -1.8564 H         1 UNK         0.0731 
     81 H81        31.9208   -2.2206   -3.8531 H         1 UNK         0.1312 
     82 H82        30.0178   -3.6724   -7.4102 H         1 UNK         0.1406 
     83 H83        28.9171   -5.2738   -3.5893 H         1 UNK         0.1631 
     84 H84        28.2110   -6.3919   -5.6019 H         1 UNK         0.0717 
     85 H85        28.8257   -5.9346   -7.1616 H         1 UNK         0.0717 
     86 H86        27.9952   -4.3686   -8.6813 H         1 UNK         0.0934 
     87 H87        26.3509   -4.8407   -8.9507 H         1 UNK         0.0934 
     88 H88        26.5119   -2.5803   -9.6655 H         1 UNK         0.0739 
     89 H89        24.8392   -3.0847   -7.4265 H         1 UNK         0.3093 
     90 H90        23.1268    0.0113   -7.3690 H         1 UNK         0.0818 
     91 H91        21.1131   -1.3436   -7.8675 H         1 UNK         0.0819 
     92 H92        22.0443   -1.0938   -9.3336 H         1 UNK         0.0819 
     93 H93        22.1111   -2.6475   -8.5137 H         1 UNK         0.0819 
     94 H94        22.5378   -2.4176   -6.0518 H         1 UNK         0.3041 
     95 H95        22.8009   -2.4383   -3.7961 H         1 UNK         0.0784 
     96 H96        24.4360   -4.0916   -4.7366 H         1 UNK         0.0793 
     97 H97        25.7750   -3.2164   -4.0004 H         1 UNK         0.0793 
     98 H98        24.5804   -4.0269   -2.9906 H         1 UNK         0.0793 
     99 H99        24.9152   -0.6129   -2.9367 H         1 UNK         0.3024 
    100 H100       24.1883    0.5032   -0.8179 H         1 UNK         0.1171 
    101 H101       23.9204    0.1359    1.6191 H         1 UNK         0.0786 
    102 H102       22.4847   -0.3962    0.7607 H         1 UNK         0.0786 
    103 H103       23.6346   -1.5845    1.3590 H         1 UNK         0.0786 
    104 H104       25.9571   -1.3407    0.6189 H         1 UNK         0.2977 
    105 H105       26.7957   -1.6560   -6.2405 H         1 UNK         0.3127 
    106 H106       29.4684   -0.5669   -6.5260 H         1 UNK         0.0770 
    107 H107       27.3899   -0.2434   -4.3167 H         1 UNK         0.0814 
    108 H108       28.6969   -1.4270   -4.3696 H         1 UNK         0.0814 
    109 H109       29.0669    0.2845   -4.2220 H         1 UNK         0.0814 
    110 H110       26.1554    0.7624   -6.5764 H         1 UNK         0.2983 
    111 H111       26.8707    3.4966   -6.8815 H         1 UNK         0.0947 
    112 H112       24.5581    2.6995   -6.3333 H         1 UNK         0.0806 
    113 H113       24.3975    2.0366   -7.9595 H         1 UNK         0.0806 
    114 H114       24.5593    3.7693   -7.7273 H         1 UNK         0.0806 
    115 H115       26.5443    0.8851   -9.2793 H         1 UNK         0.3000 
    116 H116       27.0742    2.5414  -11.5808 H         1 UNK         0.0850 
    117 H117       27.2424    0.3398  -12.7571 H         1 UNK         0.0810 
    118 H118       25.7860    0.4537  -11.7812 H         1 UNK         0.0810 
    119 H119       27.1514   -0.5003  -11.2143 H         1 UNK         0.0810 
    120 H120       29.1167    0.0105   -9.9439 H         1 UNK         0.3040 
    121 H121       31.3292    0.7433  -11.7163 H         1 UNK         0.0766 
    122 H122       31.0070   -1.5421   -9.7140 H         1 UNK         0.0812 
    123 H123       32.3178   -1.3682  -10.8685 H         1 UNK         0.0812 
    124 H124       30.6763   -1.6141  -11.4397 H         1 UNK         0.0812 
    125 H125       30.5398    1.5736   -8.4477 H         1 UNK         0.3205 
    126 H126       31.5021    2.7220   -6.8679 H         1 UNK         0.0754 
    127 H127       33.3926    4.2365   -7.3070 H         1 UNK         0.0769 
    128 H128       32.2308    4.3022   -8.6219 H         1 UNK         0.0769 
    129 H129       33.7458    3.4246   -8.8231 H         1 UNK         0.0769 
    130 H130       34.0091    0.7370   -8.4324 H         1 UNK         0.2981 
    131 H131       35.6146   -0.5952   -7.7131 H         1 UNK         0.0541 
    132 H132       35.9001    2.3882   -7.0240 H         1 UNK         0.3459 
    133 H133       37.2474    2.3712   -5.9128 H         1 UNK         0.3459 
    134 H134       34.0089   -0.9618   -5.1297 H         1 UNK         0.0612 
    135 H135       35.3529   -1.9511   -5.6187 H         1 UNK         0.0612 
    136 H136       31.2888   -1.6182   -7.4775 H         1 UNK         0.0624 
    137 H137       31.8834   -0.8850   -6.0197 H         1 UNK         0.0624 
@<TRIPOS>BOND
     1    1    2 1    
     2    1   72 1    
     3    1   73 1    
     4    1   74 1    
     5    2    3 2    
     6    2    4 am   BACKBONE|DICT|INTERRES
     7    4    5 1    
     8    4   75 1    
     9    5    6 1    
    10    5   35 1    
    11    5   76 1    
    12    6    7 1    
    13    6   77 1    
    14    6   78 1    
    15    7    8 1    
    16    8    9 1    
    17    8   79 1    
    18    8   80 1    
    19    9   10 ar   
    20    9   14 ar   
    21   10   11 ar   
    22   10   81 1    
    23   11   12 ar   
    24   11   71 1    
    25   12   13 ar   
    26   12   82 1    
    27   13   14 ar   
    28   13   15 1    
    29   14   83 1    
    30   15   16 1    
    31   15   84 1    
    32   15   85 1    
    33   16   17 1    
    34   17   18 1    
    35   17   86 1    
    36   17   87 1    
    37   18   19 1    
    38   18   37 1    
    39   18   88 1    
    40   19   20 am   BACKBONE|DICT|INTERRES
    41   19   89 1    
    42   20   21 2    
    43   20   22 1    
    44   22   23 1    
    45   22   24 1    
    46   22   90 1    
    47   23   91 1    
    48   23   92 1    
    49   23   93 1    
    50   24   25 am   BACKBONE|DICT|INTERRES
    51   24   94 1    
    52   25   26 2    
    53   25   27 1    
    54   27   28 1    
    55   27   29 1    
    56   27   95 1    
    57   28   96 1    
    58   28   97 1    
    59   28   98 1    
    60   29   30 am   BACKBONE|DICT|INTERRES
    61   29   99 1    
    62   30   31 2    
    63   30   32 1    
    64   32   33 1    
    65   32   34 1    
    66   32  100 1    
    67   33  101 1    
    68   33  102 1    
    69   33  103 1    
    70   34   35 am   BACKBONE|DICT|INTERRES
    71   34  104 1    
    72   35   36 2    
    73   37   38 2    
    74   37   39 am   BACKBONE|DICT|INTERRES
    75   39   40 1    
    76   39  105 1    
    77   40   41 1    
    78   40   42 1    
    79   40  106 1    
    80   41  107 1    
    81   41  108 1    
    82   41  109 1    
    83   42   43 2    
    84   42   44 am   BACKBONE|DICT|INTERRES
    85   44   45 1    
    86   44  110 1    
    87   45   46 1    
    88   45   47 1    
    89   45  111 1    
    90   46  112 1    
    91   46  113 1    
    92   46  114 1    
    93   47   48 2    
    94   47   49 am   BACKBONE|DICT|INTERRES
    95   49   50 1    
    96   49  115 1    
    97   50   51 1    
    98   50   52 1    
    99   50  116 1    
   100   51  117 1    
   101   51  118 1    
   102   51  119 1    
   103   52   53 2    
   104   52   54 am   BACKBONE|DICT|INTERRES
   105   54   55 1    
   106   54  120 1    
   107   55   56 1    
   108   55   57 1    
   109   55  121 1    
   110   56  122 1    
   111   56  123 1    
   112   56  124 1    
   113   57   58 2    
   114   57   59 am   BACKBONE|DICT|INTERRES
   115   59   60 1    
   116   59  125 1    
   117   60   61 1    
   118   60   62 1    
   119   60  126 1    
   120   61  127 1    
   121   61  128 1    
   122   61  129 1    
   123   62   63 2    
   124   62   64 am   BACKBONE|DICT|INTERRES
   125   64   65 1    
   126   64  130 1    
   127   65   66 1    
   128   65   69 1    
   129   65  131 1    
   130   66   67 am   BACKBONE|DICT|INTERRES
   131   66   68 2    
   132   67  132 1    
   133   67  133 1    
   134   69   70 1    
   135   69  134 1    
   136   69  135 1    
   137   70   71 1    
   138   71  136 1    
   139   71  137 1    
@<TRIPOS>SUBSTRUCTURE
     1 UNK         1 GROUP             0       ****    0 ROOT    
