@<TRIPOS>MOLECULE
3R137
137   139    1
SMALL
USER_CHARGES


@<TRIPOS>ATOM
      1 CA         30.5787    0.5583    1.7979 C.3       0 UNK        -0.2020 
      2 C          29.8609   -0.2878    0.7568 C.2       0 UNK         0.4855 
      3 O          29.7666    0.1187   -0.4020 O.2       0 UNK        -0.5197 
      4 N          29.3629   -1.4641    1.1584 N.am      1 UNK        -0.4892 
      5 CA         28.6073   -2.3823    0.2993 C.3       1 UNK         0.0835 
      6 C6         28.6266   -3.8357    0.8389 C.3       12 UNK        -0.0855 
      7 S7         30.2995   -4.5576    0.7386 S.3       12 UNK        -0.2931 
      8 C8         30.2076   -5.5115   -0.8174 C.3       12 UNK         0.0378 
      9 C9         29.8546   -4.6434   -2.0211 C.ar      12 UNK        -0.0802 
     10 C10        30.7032   -3.6010   -2.4098 C.ar      12 UNK        -0.0944 
     11 C11        30.3711   -2.7807   -3.4914 C.ar      12 UNK        -0.0787 
     12 C12        29.1943   -3.0234   -4.2036 C.ar      12 UNK        -0.0862 
     13 C13        28.3509   -4.0790   -3.8446 C.ar      12 UNK        -0.0733 
     14 C14        28.6820   -4.8824   -2.7478 C.ar      12 UNK        -0.0832 
     15 C15        27.0981   -4.3557   -4.6623 C.3       12 UNK         0.0240 
     16 S16        27.5390   -4.9565   -6.3182 S.3       12 UNK        -0.2522 
     17 C17        25.9099   -5.0979   -7.1363 C.3       12 UNK        -0.0967 
     18 CA         25.4919   -3.8910   -8.0215 C.3       5 UNK         0.0660 
     19 N          24.9841   -2.7674   -7.2226 N.am      5 UNK        -0.4015 
     20 C          24.3425   -1.7022   -7.7261 C.2       4 UNK         0.4946 
     21 O          24.0741   -1.5711   -8.9204 O.2       4 UNK        -0.5353 
     22 CA         23.9854   -0.5614   -6.7593 C.3       4 UNK         0.0277 
     23 CB         22.5426   -0.7213   -6.2554 C.3       4 UNK        -0.1981 
     24 N          24.8820   -0.4164   -5.6086 N.am      4 UNK        -0.4209 
     25 C          26.2054   -0.2186   -5.6377 C.2       3 UNK         0.4942 
     26 O          26.8747   -0.2385   -6.6728 O.2       3 UNK        -0.5208 
     27 CA         26.9085    0.0244   -4.2885 C.3       3 UNK         0.0250 
     28 CB         26.7785    1.4973   -3.8564 C.3       3 UNK        -0.1990 
     29 N          26.5072   -0.8812   -3.1986 N.am      3 UNK        -0.4232 
     30 C          25.3162   -1.0106   -2.5878 C.2       2 UNK         0.4993 
     31 O          24.3126   -0.3686   -2.8980 O.2       2 UNK        -0.5286 
     32 CA         25.2093   -2.0526   -1.4608 C.3       2 UNK         0.0209 
     33 CB         24.4306   -3.2882   -1.9427 C.3       2 UNK        -0.1931 
     34 N          26.5241   -2.4734   -0.9676 N.am      2 UNK        -0.4546 
     35 C          27.1701   -1.8853    0.0482 C.2       1 UNK         0.5154 
     36 O          26.6757   -1.0029    0.7556 O.2       1 UNK        -0.5181 
     37 C          26.5865   -3.4699   -9.0341 C.2       5 UNK         0.5014 
     38 O          26.7287   -4.1165  -10.0731 O.2       5 UNK        -0.5248 
     39 N          27.3113   -2.3854   -8.7232 N.am      6 UNK        -0.4434 
     40 CA         28.3172   -1.7499   -9.5726 C.3       6 UNK         0.0363 
     41 CB         29.6107   -1.5922   -8.7521 C.3       6 UNK        -0.1936 
     42 C          27.8186   -0.3875  -10.0910 C.2       6 UNK         0.5081 
     43 O          28.6392    0.4431  -10.4816 O.2       6 UNK        -0.5248 
     44 N          26.4974   -0.1437  -10.0321 N.am      7 UNK        -0.4718 
     45 CA         25.7999    1.1040  -10.3827 C.3       7 UNK         0.0273 
     46 CB         25.8396    1.3256  -11.9094 C.3       7 UNK        -0.1935 
     47 C          26.2943    2.3403   -9.5998 C.2       7 UNK         0.5018 
     48 O          26.1509    3.4641  -10.0837 O.2       7 UNK        -0.5186 
     49 N          26.8967    2.1046   -8.4231 N.am      8 UNK        -0.4240 
     50 CA         27.6140    3.0585   -7.5718 C.3       8 UNK         0.0235 
     51 CB         26.6408    4.0836   -6.9536 C.3       8 UNK        -0.2000 
     52 C          28.8333    3.7245   -8.2459 C.2       8 UNK         0.4941 
     53 O          29.3012    4.7555   -7.7577 O.2       8 UNK        -0.5273 
     54 N          29.3706    3.1269   -9.3216 N.am      9 UNK        -0.4262 
     55 CA         30.5124    3.6387  -10.0865 C.3       9 UNK         0.0264 
     56 CB         30.4435    3.0842  -11.5216 C.3       9 UNK        -0.1955 
     57 C          31.8505    3.3216   -9.3925 C.2       9 UNK         0.5031 
     58 O          32.6876    2.6138   -9.9563 O.2       9 UNK        -0.5390 
     59 N          32.0056    3.8160   -8.1550 N.am      10 UNK        -0.4204 
     60 CA         33.1680    3.6667   -7.2642 C.3       10 UNK         0.0237 
     61 CB         34.3531    4.5019   -7.7942 C.3       10 UNK        -0.1985 
     62 C          33.5618    2.1994   -6.9818 C.2       10 UNK         0.4970 
     63 O          34.7381    1.9151   -6.7496 O.2       10 UNK        -0.4914 
     64 N          32.5713    1.2973   -7.0212 N.am      11 UNK        -0.4285 
     65 CA         32.7282   -0.1634   -6.9486 C.3       11 UNK         0.1007 
     66 C          33.4398   -0.8016   -8.1854 C.2       11 UNK         0.5703 
     67 N          33.5591   -0.1122   -9.3149 N.am      11 UNK        -0.7361 
     68 O          33.8688   -1.9517   -8.1395 O.2       11 UNK        -0.4986 
     69 C69        33.2981   -0.6333   -5.5765 C.3       12 UNK        -0.0947 
     70 S70        32.5784   -2.2181   -5.0338 S.3       12 UNK        -0.2240 
     71 C71        31.2851   -1.6372   -3.8977 C.3       12 UNK         0.0194 
     72 H72        30.0795    1.5207    1.9071 H         1 UNK         0.0906 
     73 H73        30.5994    0.0742    2.7741 H         1 UNK         0.0906 
     74 H74        31.6074    0.7408    1.4882 H         1 UNK         0.0906 
     75 H75        29.4552   -1.7432    2.1246 H         1 UNK         0.3140 
     76 H76        29.0905   -2.3706   -0.6771 H         1 UNK         0.1085 
     77 H77        27.9403   -4.4827    0.2894 H         1 UNK         0.0836 
     78 H78        28.2926   -3.8637    1.8777 H         1 UNK         0.0836 
     79 H79        29.4860   -6.3207   -0.6942 H         1 UNK         0.0731 
     80 H80        31.1726   -5.9880   -0.9957 H         1 UNK         0.0731 
     81 H81        31.6145   -3.4172   -1.8567 H         1 UNK         0.1312 
     82 H82        28.9478   -2.4087   -5.0591 H         1 UNK         0.1406 
     83 H83        28.0337   -5.7022   -2.4678 H         1 UNK         0.1631 
     84 H84        26.5118   -3.4410   -4.7475 H         1 UNK         0.0717 
     85 H85        26.4658   -5.0967   -4.1707 H         1 UNK         0.0717 
     86 H86        25.9508   -5.9927   -7.7604 H         1 UNK         0.0934 
     87 H87        25.1410   -5.3099   -6.3915 H         1 UNK         0.0934 
     88 H88        24.6463   -4.2282   -8.6256 H         1 UNK         0.0739 
     89 H89        25.1636   -2.7933   -6.2316 H         1 UNK         0.3093 
     90 H90        24.0467    0.3686   -7.3283 H         1 UNK         0.0818 
     91 H91        21.8428   -0.8063   -7.0883 H         1 UNK         0.0819 
     92 H92        22.4271   -1.6132   -5.6382 H         1 UNK         0.0819 
     93 H93        22.2326    0.1386   -5.6612 H         1 UNK         0.0819 
     94 H94        24.4442   -0.3758   -4.6886 H         1 UNK         0.3041 
     95 H95        27.9692   -0.1683   -4.4563 H         1 UNK         0.0784 
     96 H96        27.1868    2.1674   -4.6116 H         1 UNK         0.0793 
     97 H97        25.7399    1.7876   -3.6951 H         1 UNK         0.0793 
     98 H98        27.3248    1.6859   -2.9319 H         1 UNK         0.0793 
     99 H99        27.2519   -1.4676   -2.8523 H         1 UNK         0.3024 
    100 H100       24.6402   -1.5908   -0.6502 H         1 UNK         0.1171 
    101 H101       24.3011   -4.0119   -1.1377 H         1 UNK         0.0786 
    102 H102       23.4334   -3.0105   -2.2876 H         1 UNK         0.0786 
    103 H103       24.9305   -3.7922   -2.7685 H         1 UNK         0.0786 
    104 H104       26.9788   -3.2237   -1.4681 H         1 UNK         0.2977 
    105 H105       27.1040   -1.8904   -7.8615 H         1 UNK         0.3127 
    106 H106       28.5326   -2.3689  -10.4455 H         1 UNK         0.0770 
    107 H107       29.4616   -0.9300   -7.8984 H         1 UNK         0.0814 
    108 H108       30.4143   -1.1728   -9.3591 H         1 UNK         0.0814 
    109 H109       29.9606   -2.5529   -8.3735 H         1 UNK         0.0814 
    110 H110       25.8926   -0.8824   -9.6889 H         1 UNK         0.2983 
    111 H111       24.7571    0.9634  -10.0938 H         1 UNK         0.0947 
    112 H112       25.2101    2.1669  -12.2017 H         1 UNK         0.0806 
    113 H113       25.4753    0.4501  -12.4468 H         1 UNK         0.0806 
    114 H114       26.8502    1.5386  -12.2599 H         1 UNK         0.0806 
    115 H115       26.9341    1.1417   -8.1006 H         1 UNK         0.3000 
    116 H116       28.0303    2.4644   -6.7583 H         1 UNK         0.0850 
    117 H117       27.1401    4.6958   -6.2016 H         1 UNK         0.0810 
    118 H118       25.8038    3.5884   -6.4613 H         1 UNK         0.0810 
    119 H119       26.2355    4.7607   -7.7059 H         1 UNK         0.0810 
    120 H120       28.9718    2.2521   -9.6526 H         1 UNK         0.3040 
    121 H121       30.4324    4.7260  -10.1524 H         1 UNK         0.0766 
    122 H122       29.4957    3.3337  -11.9990 H         1 UNK         0.0812 
    123 H123       30.5518    1.9991  -11.5412 H         1 UNK         0.0812 
    124 H124       31.2393    3.5014  -12.1398 H         1 UNK         0.0812 
    125 H125       31.2210    4.3480   -7.7839 H         1 UNK         0.3205 
    126 H126       32.8709    4.0870   -6.3023 H         1 UNK         0.0754 
    127 H127       35.1788    4.5123   -7.0815 H         1 UNK         0.0769 
    128 H128       34.0630    5.5388   -7.9641 H         1 UNK         0.0769 
    129 H129       34.7379    4.1032   -8.7336 H         1 UNK         0.0769 
    130 H130       31.6418    1.6264   -7.2322 H         1 UNK         0.2981 
    131 H131       31.7036   -0.5273   -7.0150 H         1 UNK         0.0541 
    132 H132       33.2214    0.8425   -9.3980 H         1 UNK         0.3459 
    133 H133       34.0125   -0.5460  -10.1025 H         1 UNK         0.3459 
    134 H134       34.3846   -0.7291   -5.6145 H         1 UNK         0.0612 
    135 H135       33.0986    0.1087   -4.8017 H         1 UNK         0.0612 
    136 H136       30.7064   -0.8467   -4.3786 H         1 UNK         0.0624 
    137 H137       31.7470   -1.1920   -3.0149 H         1 UNK         0.0624 
@<TRIPOS>BOND
     1    1    2 1    
     2    1   72 1    
     3    1   73 1    
     4    1   74 1    
     5    2    3 2    
     6    2    4 am   BACKBONE|DICT|INTERRES
     7    4    5 1    
     8    4   75 1    
     9    5    6 1    
    10    5   35 1    
    11    5   76 1    
    12    6    7 1    
    13    6   77 1    
    14    6   78 1    
    15    7    8 1    
    16    8    9 1    
    17    8   79 1    
    18    8   80 1    
    19    9   10 ar   
    20    9   14 ar   
    21   10   11 ar   
    22   10   81 1    
    23   11   12 ar   
    24   11   71 1    
    25   12   13 ar   
    26   12   82 1    
    27   13   14 ar   
    28   13   15 1    
    29   14   83 1    
    30   15   16 1    
    31   15   84 1    
    32   15   85 1    
    33   16   17 1    
    34   17   18 1    
    35   17   86 1    
    36   17   87 1    
    37   18   19 1    
    38   18   37 1    
    39   18   88 1    
    40   19   20 am   BACKBONE|DICT|INTERRES
    41   19   89 1    
    42   20   21 2    
    43   20   22 1    
    44   22   23 1    
    45   22   24 1    
    46   22   90 1    
    47   23   91 1    
    48   23   92 1    
    49   23   93 1    
    50   24   25 am   BACKBONE|DICT|INTERRES
    51   24   94 1    
    52   25   26 2    
    53   25   27 1    
    54   27   28 1    
    55   27   29 1    
    56   27   95 1    
    57   28   96 1    
    58   28   97 1    
    59   28   98 1    
    60   29   30 am   BACKBONE|DICT|INTERRES
    61   29   99 1    
    62   30   31 2    
    63   30   32 1    
    64   32   33 1    
    65   32   34 1    
    66   32  100 1    
    67   33  101 1    
    68   33  102 1    
    69   33  103 1    
    70   34   35 am   BACKBONE|DICT|INTERRES
    71   34  104 1    
    72   35   36 2    
    73   37   38 2    
    74   37   39 am   BACKBONE|DICT|INTERRES
    75   39   40 1    
    76   39  105 1    
    77   40   41 1    
    78   40   42 1    
    79   40  106 1    
    80   41  107 1    
    81   41  108 1    
    82   41  109 1    
    83   42   43 2    
    84   42   44 am   BACKBONE|DICT|INTERRES
    85   44   45 1    
    86   44  110 1    
    87   45   46 1    
    88   45   47 1    
    89   45  111 1    
    90   46  112 1    
    91   46  113 1    
    92   46  114 1    
    93   47   48 2    
    94   47   49 am   BACKBONE|DICT|INTERRES
    95   49   50 1    
    96   49  115 1    
    97   50   51 1    
    98   50   52 1    
    99   50  116 1    
   100   51  117 1    
   101   51  118 1    
   102   51  119 1    
   103   52   53 2    
   104   52   54 am   BACKBONE|DICT|INTERRES
   105   54   55 1    
   106   54  120 1    
   107   55   56 1    
   108   55   57 1    
   109   55  121 1    
   110   56  122 1    
   111   56  123 1    
   112   56  124 1    
   113   57   58 2    
   114   57   59 am   BACKBONE|DICT|INTERRES
   115   59   60 1    
   116   59  125 1    
   117   60   61 1    
   118   60   62 1    
   119   60  126 1    
   120   61  127 1    
   121   61  128 1    
   122   61  129 1    
   123   62   63 2    
   124   62   64 am   BACKBONE|DICT|INTERRES
   125   64   65 1    
   126   64  130 1    
   127   65   66 1    
   128   65   69 1    
   129   65  131 1    
   130   66   67 am   BACKBONE|DICT|INTERRES
   131   66   68 2    
   132   67  132 1    
   133   67  133 1    
   134   69   70 1    
   135   69  134 1    
   136   69  135 1    
   137   70   71 1    
   138   71  136 1    
   139   71  137 1    
@<TRIPOS>SUBSTRUCTURE
     1 UNK         1 GROUP             0       ****    0 ROOT    
