@<TRIPOS>MOLECULE
3R137
137   139    1
SMALL
USER_CHARGES


@<TRIPOS>ATOM
      1 CA         25.6141   -3.0029    0.3180 C.3       0 UNK        -0.2020 
      2 C          26.4529   -1.9506   -0.3900 C.2       0 UNK         0.4855 
      3 O          26.2203   -0.7563   -0.2007 O.2       0 UNK        -0.5197 
      4 N          27.4192   -2.3846   -1.2108 N.am      1 UNK        -0.4892 
      5 CA         28.3233   -1.5482   -2.0110 C.3       1 UNK         0.0835 
      6 C6         29.2750   -2.4100   -2.8692 C.3       12 UNK        -0.0855 
      7 S7         30.4079   -3.4398   -1.8750 S.3       12 UNK        -0.2931 
      8 C8         30.4281   -5.0056   -2.8156 C.3       12 UNK         0.0378 
      9 C9         30.6070   -4.7900   -4.3147 C.ar      12 UNK        -0.0802 
     10 C10        31.7493   -4.1545   -4.8110 C.ar      12 UNK        -0.0944 
     11 C11        31.8932   -3.9033   -6.1793 C.ar      12 UNK        -0.0787 
     12 C12        30.8816   -4.3201   -7.0560 C.ar      12 UNK        -0.0862 
     13 C13        29.7348   -4.9588   -6.5745 C.ar      12 UNK        -0.0733 
     14 C14        29.6096   -5.2004   -5.2036 C.ar      12 UNK        -0.0832 
     15 C15        28.6370   -5.3951   -7.5383 C.3       12 UNK         0.0240 
     16 S16        27.0022   -4.7130   -7.1053 S.3       12 UNK        -0.2522 
     17 C17        27.2830   -2.9234   -7.3185 C.3       12 UNK        -0.0967 
     18 CA         25.9713   -2.1038   -7.1806 C.3       5 UNK         0.0660 
     19 N          25.3916   -2.2281   -5.8437 N.am      5 UNK        -0.4015 
     20 C          24.1979   -2.7536   -5.5490 C.2       4 UNK         0.4946 
     21 O          23.3834   -3.1316   -6.3919 O.2       4 UNK        -0.5353 
     22 CA         23.8526   -2.8768   -4.0591 C.3       4 UNK         0.0277 
     23 CB         24.7397   -3.9394   -3.3851 C.3       4 UNK        -0.1981 
     24 N          24.0114   -1.5974   -3.3635 N.am      4 UNK        -0.4209 
     25 C          22.9995   -0.8320   -2.9276 C.2       3 UNK         0.4942 
     26 O          21.8124   -1.1079   -3.1059 O.2       3 UNK        -0.5208 
     27 CA         23.3445    0.4447   -2.1352 C.3       3 UNK         0.0250 
     28 CB         22.9791    0.2722   -0.6511 C.3       3 UNK        -0.1990 
     29 N          24.7567    0.8208   -2.2408 N.am      3 UNK        -0.4232 
     30 C          25.2566    1.5710   -3.2334 C.2       2 UNK         0.4993 
     31 O          24.5594    2.1043   -4.0943 O.2       2 UNK        -0.5286 
     32 CA         26.7859    1.7507   -3.3061 C.3       2 UNK         0.0209 
     33 CB         27.1922    3.1294   -2.7622 C.3       2 UNK        -0.1931 
     34 N          27.5566    0.7126   -2.6118 N.am      2 UNK        -0.4546 
     35 C          27.5318   -0.5905   -2.9212 C.2       1 UNK         0.5154 
     36 O          26.8640   -1.0562   -3.8462 O.2       1 UNK        -0.5181 
     37 C          26.1851   -0.6072   -7.4564 C.2       5 UNK         0.5014 
     38 O          27.3106   -0.1827   -7.7214 O.2       5 UNK        -0.5248 
     39 N          25.0992    0.1754   -7.3708 N.am      6 UNK        -0.4434 
     40 CA         25.0737    1.6443   -7.4313 C.3       6 UNK         0.0363 
     41 CB         23.6160    2.1209   -7.3224 C.3       6 UNK        -0.1936 
     42 C          25.7416    2.2791   -8.6650 C.2       6 UNK         0.5081 
     43 O          26.2188    3.4102   -8.5754 O.2       6 UNK        -0.5248 
     44 N          25.7755    1.5463   -9.7854 N.am      7 UNK        -0.4718 
     45 CA         26.4391    1.9526  -11.0259 C.3       7 UNK         0.0273 
     46 CB         25.9554    1.0452  -12.1691 C.3       7 UNK        -0.1935 
     47 C          27.9785    1.9382  -10.9462 C.2       7 UNK         0.5018 
     48 O          28.6143    2.6105  -11.7596 O.2       7 UNK        -0.5186 
     49 N          28.5477    1.1730  -10.0034 N.am      8 UNK        -0.4240 
     50 CA         29.9930    1.0044   -9.8270 C.3       8 UNK         0.0235 
     51 CB         30.3604   -0.4655  -10.0794 C.3       8 UNK        -0.2000 
     52 C          30.4664    1.4495   -8.4350 C.2       8 UNK         0.4941 
     53 O          31.5662    1.9956   -8.3286 O.2       8 UNK        -0.5273 
     54 N          29.6405    1.2240   -7.4015 N.am      9 UNK        -0.4262 
     55 CA         29.8591    1.5503   -5.9901 C.3       9 UNK         0.0264 
     56 CB         29.7437    3.0739   -5.7620 C.3       9 UNK        -0.1955 
     57 C          31.1568    0.9250   -5.4475 C.2       9 UNK         0.5031 
     58 O          31.1813   -0.2789   -5.1988 O.2       9 UNK        -0.5390 
     59 N          32.2056    1.7404   -5.2796 N.am      10 UNK        -0.4204 
     60 CA         33.5365    1.3100   -4.8443 C.3       10 UNK         0.0237 
     61 CB         34.3216    2.5397   -4.3575 C.3       10 UNK        -0.1985 
     62 C          34.3341    0.5558   -5.9272 C.2       10 UNK         0.4970 
     63 O          35.3229   -0.0929   -5.5816 O.2       10 UNK        -0.4914 
     64 N          33.9115    0.6578   -7.1959 N.am      11 UNK        -0.4285 
     65 CA         34.5657    0.0853   -8.3838 C.3       11 UNK         0.1007 
     66 C          35.9506    0.7358   -8.6906 C.2       11 UNK         0.5703 
     67 N          36.7601    0.1383   -9.5560 N.am      11 UNK        -0.7361 
     68 O          36.2865    1.8101   -8.1934 O.2       11 UNK        -0.4986 
     69 C69        34.5913   -1.4743   -8.3836 C.3       12 UNK        -0.0947 
     70 S70        32.9352   -2.2107   -8.1848 S.3       12 UNK        -0.2240 
     71 C71        33.1594   -3.1994   -6.6693 C.3       12 UNK         0.0194 
     72 H72        24.5697   -2.9113    0.0213 H         1 UNK         0.0906 
     73 H73        25.6749   -2.8661    1.3973 H         1 UNK         0.0906 
     74 H74        25.9456   -4.0146    0.0851 H         1 UNK         0.0906 
     75 H75        27.5702   -3.3783   -1.3078 H         1 UNK         0.3140 
     76 H76        28.9248   -0.9546   -1.3194 H         1 UNK         0.1085 
     77 H77        29.8929   -1.7820   -3.5126 H         1 UNK         0.0836 
     78 H78        28.6914   -3.0434   -3.5399 H         1 UNK         0.0836 
     79 H79        31.2389   -5.6334   -2.4438 H         1 UNK         0.0731 
     80 H80        29.5027   -5.5460   -2.6102 H         1 UNK         0.0731 
     81 H81        32.5185   -3.8335   -4.1216 H         1 UNK         0.1312 
     82 H82        30.9808   -4.1464   -8.1181 H         1 UNK         0.1406 
     83 H83        28.7203   -5.6902   -4.8303 H         1 UNK         0.1631 
     84 H84        28.5757   -6.4841   -7.5304 H         1 UNK         0.0717 
     85 H85        28.8781   -5.1083   -8.5631 H         1 UNK         0.0717 
     86 H86        28.0226   -2.5941   -6.5849 H         1 UNK         0.0934 
     87 H87        27.7321   -2.7654   -8.3012 H         1 UNK         0.0934 
     88 H88        25.2697   -2.4614   -7.9372 H         1 UNK         0.0739 
     89 H89        25.9781   -1.8760   -5.0864 H         1 UNK         0.3093 
     90 H90        22.8184   -3.2209   -3.9899 H         1 UNK         0.0818 
     91 H91        24.6568   -4.8984   -3.8985 H         1 UNK         0.0819 
     92 H92        25.7935   -3.6589   -3.3909 H         1 UNK         0.0819 
     93 H93        24.4417   -4.1016   -2.3496 H         1 UNK         0.0819 
     94 H94        24.9615   -1.2647   -3.2443 H         1 UNK         0.3041 
     95 H95        22.7264    1.2509   -2.5364 H         1 UNK         0.0784 
     96 H96        21.9150    0.0627   -0.5331 H         1 UNK         0.0793 
     97 H97        23.5241   -0.5520   -0.1911 H         1 UNK         0.0793 
     98 H98        23.1951    1.1762   -0.0815 H         1 UNK         0.0793 
     99 H99        25.3877    0.4199   -1.5509 H         1 UNK         0.3024 
    100 H100       27.0499    1.7072   -4.3644 H         1 UNK         0.1171 
    101 H101       26.9453    3.2337   -1.7049 H         1 UNK         0.0786 
    102 H102       28.2616    3.3052   -2.8761 H         1 UNK         0.0786 
    103 H103       26.6758    3.9276   -3.2977 H         1 UNK         0.0786 
    104 H104       28.0847    1.0103   -1.8035 H         1 UNK         0.2977 
    105 H105       24.2195   -0.2720   -7.1552 H         1 UNK         0.3127 
    106 H106       25.6207    2.0069   -6.5594 H         1 UNK         0.0770 
    107 H107       23.5622    3.2105   -7.3078 H         1 UNK         0.0814 
    108 H108       23.0139    1.7749   -8.1634 H         1 UNK         0.0814 
    109 H109       23.1474    1.7663   -6.4042 H         1 UNK         0.0814 
    110 H110       25.3514    0.6302   -9.7699 H         1 UNK         0.2983 
    111 H111       26.1376    2.9779  -11.2523 H         1 UNK         0.0947 
    112 H112       26.2189    0.0011  -11.9955 H         1 UNK         0.0806 
    113 H113       26.4045    1.3405  -13.1186 H         1 UNK         0.0806 
    114 H114       24.8739    1.1042  -12.2935 H         1 UNK         0.0806 
    115 H115       27.9474    0.6828   -9.3473 H         1 UNK         0.3000 
    116 H116       30.5361    1.6123  -10.5537 H         1 UNK         0.0850 
    117 H117       31.4424   -0.5949  -10.0702 H         1 UNK         0.0810 
    118 H118       30.0063   -0.8027  -11.0536 H         1 UNK         0.0810 
    119 H119       29.9399   -1.1274   -9.3205 H         1 UNK         0.0810 
    120 H120       28.7826    0.7014   -7.5791 H         1 UNK         0.3040 
    121 H121       29.0478    1.0708   -5.4416 H         1 UNK         0.0766 
    122 H122       29.9181    3.3324   -4.7169 H         1 UNK         0.0812 
    123 H123       28.7436    3.4269   -6.0152 H         1 UNK         0.0812 
    124 H124       30.4507    3.6409   -6.3683 H         1 UNK         0.0812 
    125 H125       32.1021    2.7095   -5.5439 H         1 UNK         0.3205 
    126 H126       33.4145    0.6273   -4.0004 H         1 UNK         0.0754 
    127 H127       35.3058    2.2522   -3.9845 H         1 UNK         0.0769 
    128 H128       33.8039    3.0455   -3.5422 H         1 UNK         0.0769 
    129 H129       34.4768    3.2626   -5.1596 H         1 UNK         0.0769 
    130 H130       33.0906    1.2214   -7.3956 H         1 UNK         0.2981 
    131 H131       33.9333    0.3956   -9.2162 H         1 UNK         0.0541 
    132 H132       37.6469    0.5670   -9.7706 H         1 UNK         0.3459 
    133 H133       36.5037   -0.7301   -9.9979 H         1 UNK         0.3459 
    134 H134       35.2616   -1.8491   -7.6088 H         1 UNK         0.0612 
    135 H135       34.9827   -1.8526   -9.3285 H         1 UNK         0.0612 
    136 H136       33.5341   -2.5355   -5.8883 H         1 UNK         0.0624 
    137 H137       33.9313   -3.9494   -6.8457 H         1 UNK         0.0624 
@<TRIPOS>BOND
     1    1    2 1    
     2    1   72 1    
     3    1   73 1    
     4    1   74 1    
     5    2    3 2    
     6    2    4 am   BACKBONE|DICT|INTERRES
     7    4    5 1    
     8    4   75 1    
     9    5    6 1    
    10    5   35 1    
    11    5   76 1    
    12    6    7 1    
    13    6   77 1    
    14    6   78 1    
    15    7    8 1    
    16    8    9 1    
    17    8   79 1    
    18    8   80 1    
    19    9   10 ar   
    20    9   14 ar   
    21   10   11 ar   
    22   10   81 1    
    23   11   12 ar   
    24   11   71 1    
    25   12   13 ar   
    26   12   82 1    
    27   13   14 ar   
    28   13   15 1    
    29   14   83 1    
    30   15   16 1    
    31   15   84 1    
    32   15   85 1    
    33   16   17 1    
    34   17   18 1    
    35   17   86 1    
    36   17   87 1    
    37   18   19 1    
    38   18   37 1    
    39   18   88 1    
    40   19   20 am   BACKBONE|DICT|INTERRES
    41   19   89 1    
    42   20   21 2    
    43   20   22 1    
    44   22   23 1    
    45   22   24 1    
    46   22   90 1    
    47   23   91 1    
    48   23   92 1    
    49   23   93 1    
    50   24   25 am   BACKBONE|DICT|INTERRES
    51   24   94 1    
    52   25   26 2    
    53   25   27 1    
    54   27   28 1    
    55   27   29 1    
    56   27   95 1    
    57   28   96 1    
    58   28   97 1    
    59   28   98 1    
    60   29   30 am   BACKBONE|DICT|INTERRES
    61   29   99 1    
    62   30   31 2    
    63   30   32 1    
    64   32   33 1    
    65   32   34 1    
    66   32  100 1    
    67   33  101 1    
    68   33  102 1    
    69   33  103 1    
    70   34   35 am   BACKBONE|DICT|INTERRES
    71   34  104 1    
    72   35   36 2    
    73   37   38 2    
    74   37   39 am   BACKBONE|DICT|INTERRES
    75   39   40 1    
    76   39  105 1    
    77   40   41 1    
    78   40   42 1    
    79   40  106 1    
    80   41  107 1    
    81   41  108 1    
    82   41  109 1    
    83   42   43 2    
    84   42   44 am   BACKBONE|DICT|INTERRES
    85   44   45 1    
    86   44  110 1    
    87   45   46 1    
    88   45   47 1    
    89   45  111 1    
    90   46  112 1    
    91   46  113 1    
    92   46  114 1    
    93   47   48 2    
    94   47   49 am   BACKBONE|DICT|INTERRES
    95   49   50 1    
    96   49  115 1    
    97   50   51 1    
    98   50   52 1    
    99   50  116 1    
   100   51  117 1    
   101   51  118 1    
   102   51  119 1    
   103   52   53 2    
   104   52   54 am   BACKBONE|DICT|INTERRES
   105   54   55 1    
   106   54  120 1    
   107   55   56 1    
   108   55   57 1    
   109   55  121 1    
   110   56  122 1    
   111   56  123 1    
   112   56  124 1    
   113   57   58 2    
   114   57   59 am   BACKBONE|DICT|INTERRES
   115   59   60 1    
   116   59  125 1    
   117   60   61 1    
   118   60   62 1    
   119   60  126 1    
   120   61  127 1    
   121   61  128 1    
   122   61  129 1    
   123   62   63 2    
   124   62   64 am   BACKBONE|DICT|INTERRES
   125   64   65 1    
   126   64  130 1    
   127   65   66 1    
   128   65   69 1    
   129   65  131 1    
   130   66   67 am   BACKBONE|DICT|INTERRES
   131   66   68 2    
   132   67  132 1    
   133   67  133 1    
   134   69   70 1    
   135   69  134 1    
   136   69  135 1    
   137   70   71 1    
   138   71  136 1    
   139   71  137 1    
@<TRIPOS>SUBSTRUCTURE
     1 UNK         1 GROUP             0       ****    0 ROOT    
