@<TRIPOS>MOLECULE
3R137
137   139    1
SMALL
USER_CHARGES


@<TRIPOS>ATOM
      1 CA         26.1242   -5.8045   -3.8227 C.3       0 UNK        -0.2020 
      2 C          26.0668   -4.6720   -2.8113 C.2       0 UNK         0.4855 
      3 O          25.8300   -3.5228   -3.1860 O.2       0 UNK        -0.5197 
      4 N          26.2261   -5.0243   -1.5264 N.am      1 UNK        -0.4892 
      5 CA         26.2457   -4.1942   -0.3049 C.3       1 UNK         0.0835 
      6 C6         27.5632   -3.3783   -0.1342 C.3       12 UNK        -0.0855 
      7 S7         27.6646   -1.7765   -1.0145 S.3       12 UNK        -0.2931 
      8 C8         29.4614   -1.4565   -0.9941 C.3       12 UNK         0.0378 
      9 C9         30.1154   -1.6717   -2.3549 C.ar      12 UNK        -0.0802 
     10 C10        30.9481   -0.6860   -2.8984 C.ar      12 UNK        -0.0944 
     11 C11        31.5469   -0.8707   -4.1489 C.ar      12 UNK        -0.0787 
     12 C12        31.3172   -2.0543   -4.8542 C.ar      12 UNK        -0.0862 
     13 C13        30.4997   -3.0501   -4.3173 C.ar      12 UNK        -0.0733 
     14 C14        29.9055   -2.8560   -3.0681 C.ar      12 UNK        -0.0832 
     15 C15        30.2579   -4.3420   -5.0758 C.3       12 UNK         0.0240 
     16 S16        28.5989   -4.3677   -5.8131 S.3       12 UNK        -0.2522 
     17 C17        28.8153   -3.3875   -7.3376 C.3       12 UNK        -0.0967 
     18 CA         27.9476   -2.1027   -7.4423 C.3       5 UNK         0.0660 
     19 N          26.6387   -2.2238   -6.7919 N.am      5 UNK        -0.4015 
     20 C          25.5618   -1.5001   -7.1216 C.2       4 UNK         0.4946 
     21 O          25.5465   -0.6766   -8.0376 O.2       4 UNK        -0.5353 
     22 CA         24.3200   -1.6921   -6.2399 C.3       4 UNK         0.0277 
     23 CB         23.7676   -3.1243   -6.3342 C.3       4 UNK        -0.1981 
     24 N          24.5951   -1.3562   -4.8408 N.am      4 UNK        -0.4209 
     25 C          24.7843   -0.1077   -4.3892 C.2       3 UNK         0.4942 
     26 O          24.8032    0.8794   -5.1231 O.2       3 UNK        -0.5208 
     27 CA         25.0321    0.0726   -2.8815 C.3       3 UNK         0.0250 
     28 CB         24.6380    1.4721   -2.3603 C.3       3 UNK        -0.1990 
     29 N          24.4467   -0.9976   -2.0705 N.am      3 UNK        -0.4232 
     30 C          23.1527   -1.2452   -1.8102 C.2       2 UNK         0.4993 
     31 O          22.2262   -0.5320   -2.1968 O.2       2 UNK        -0.5286 
     32 CA         22.8306   -2.5233   -1.0029 C.3       2 UNK         0.0209 
     33 CB         21.6487   -3.2939   -1.6193 C.3       2 UNK        -0.1931 
     34 N          23.9829   -3.4244   -0.9271 N.am      2 UNK        -0.4546 
     35 C          24.9638   -3.3713   -0.0184 C.2       1 UNK         0.5154 
     36 O          24.8930   -2.6911    1.0062 O.2       1 UNK        -0.5181 
     37 C          28.6917   -0.8063   -7.0511 C.2       5 UNK         0.5014 
     38 O          29.5740   -0.3753   -7.7982 O.2       5 UNK        -0.5248 
     39 N          28.2875   -0.1684   -5.9409 N.am      6 UNK        -0.4434 
     40 CA         28.7152    1.1796   -5.5632 C.3       6 UNK         0.0363 
     41 CB         28.3115    1.4871   -4.1129 C.3       6 UNK        -0.1936 
     42 C          28.1498    2.2373   -6.5249 C.2       6 UNK         0.5081 
     43 O          28.9163    3.0546   -7.0314 O.2       6 UNK        -0.5248 
     44 N          26.8378    2.1778   -6.8063 N.am      7 UNK        -0.4718 
     45 CA         26.1563    3.0453   -7.7757 C.3       7 UNK         0.0273 
     46 CB         24.6355    2.8541   -7.6698 C.3       7 UNK        -0.1935 
     47 C          26.6295    2.8235   -9.2221 C.2       7 UNK         0.5018 
     48 O          26.6938    3.7847   -9.9890 O.2       7 UNK        -0.5186 
     49 N          26.9965    1.5773   -9.5554 N.am      8 UNK        -0.4240 
     50 CA         27.6471    1.2124  -10.8190 C.3       8 UNK         0.0235 
     51 CB         27.5676   -0.3105  -11.0117 C.3       8 UNK        -0.2000 
     52 C          29.1137    1.6830  -10.9204 C.2       8 UNK         0.4941 
     53 O          29.6825    1.6057  -12.0100 O.2       8 UNK        -0.5273 
     54 N          29.6981    2.1431   -9.8020 N.am      9 UNK        -0.4262 
     55 CA         31.0727    2.6236   -9.6364 C.3       9 UNK         0.0264 
     56 CB         31.3081    3.9165  -10.4464 C.3       9 UNK        -0.1955 
     57 C          32.1307    1.5388   -9.9068 C.2       9 UNK         0.5031 
     58 O          33.1870    1.8398  -10.4676 O.2       9 UNK        -0.5390 
     59 N          31.8575    0.2985   -9.4707 N.am      10 UNK        -0.4204 
     60 CA         32.7534   -0.8548   -9.6378 C.3       10 UNK         0.0237 
     61 CB         32.0246   -2.1326   -9.1994 C.3       10 UNK        -0.1985 
     62 C          34.0948   -0.7190   -8.8908 C.2       10 UNK         0.4970 
     63 O          35.0732   -1.3526   -9.2880 O.2       10 UNK        -0.4914 
     64 N          34.1170    0.1150   -7.8443 N.am      11 UNK        -0.4285 
     65 CA         35.3200    0.5208   -7.1043 C.3       11 UNK         0.1007 
     66 C          36.2145    1.5489   -7.8608 C.2       11 UNK         0.5703 
     67 N          35.7977    2.1090   -8.9921 N.am      11 UNK        -0.7361 
     68 O          37.3218    1.8382   -7.4137 O.2       11 UNK        -0.4986 
     69 C69        34.9629    1.0285   -5.6810 C.3       12 UNK        -0.0947 
     70 S70        34.1883   -0.2631   -4.6527 S.3       12 UNK        -0.2240 
     71 C71        32.4342    0.2048   -4.7538 C.3       12 UNK         0.0194 
     72 H72        27.1188   -6.2495   -3.8392 H         1 UNK         0.0906 
     73 H73        25.4003   -6.5807   -3.5759 H         1 UNK         0.0906 
     74 H74        25.9000   -5.4427   -4.8249 H         1 UNK         0.0906 
     75 H75        26.3690   -6.0082   -1.3400 H         1 UNK         0.3140 
     76 H76        26.2517   -4.9325    0.4992 H         1 UNK         0.1085 
     77 H77        28.4131   -3.9981   -0.4230 H         1 UNK         0.0836 
     78 H78        27.7135   -3.1641    0.9255 H         1 UNK         0.0836 
     79 H79        29.6116   -0.4280   -0.6623 H         1 UNK         0.0731 
     80 H80        29.9534   -2.0884   -0.2537 H         1 UNK         0.0731 
     81 H81        31.1247    0.2307   -2.3525 H         1 UNK         0.1312 
     82 H82        31.7832   -2.1992   -5.8179 H         1 UNK         0.1406 
     83 H83        29.2638   -3.6243   -2.6595 H         1 UNK         0.1631 
     84 H84        31.0144   -4.4995   -5.8461 H         1 UNK         0.0717 
     85 H85        30.3466   -5.1835   -4.3871 H         1 UNK         0.0717 
     86 H86        28.5480   -4.0524   -8.1603 H         1 UNK         0.0934 
     87 H87        29.8713   -3.1697   -7.4929 H         1 UNK         0.0934 
     88 H88        27.7419   -1.9838   -8.5063 H         1 UNK         0.0739 
     89 H89        26.5883   -2.8769   -6.0215 H         1 UNK         0.3093 
     90 H90        23.5487   -1.0114   -6.6077 H         1 UNK         0.0818 
     91 H91        22.8265   -3.2185   -5.7920 H         1 UNK         0.0819 
     92 H92        23.5712   -3.3994   -7.3715 H         1 UNK         0.0819 
     93 H93        24.4599   -3.8600   -5.9257 H         1 UNK         0.0819 
     94 H94        24.7042   -2.1260   -4.1879 H         1 UNK         0.3041 
     95 H95        26.1094   -0.0250   -2.7530 H         1 UNK         0.0784 
     96 H96        25.2074    2.2547   -2.8622 H         1 UNK         0.0793 
     97 H97        23.5831    1.6877   -2.5310 H         1 UNK         0.0793 
     98 H98        24.8333    1.5665   -1.2922 H         1 UNK         0.0793 
     99 H99        25.1183   -1.6816   -1.7436 H         1 UNK         0.3024 
    100 H100       22.5488   -2.2055    0.0036 H         1 UNK         0.1171 
    101 H101       20.7441   -2.6843   -1.6305 H         1 UNK         0.0786 
    102 H102       21.4209   -4.1939   -1.0479 H         1 UNK         0.0786 
    103 H103       21.8546   -3.5917   -2.6483 H         1 UNK         0.0786 
    104 H104       24.1699   -3.9779   -1.7527 H         1 UNK         0.2977 
    105 H105       27.5709   -0.5989   -5.3776 H         1 UNK         0.3127 
    106 H106       29.8042    1.2117   -5.6250 H         1 UNK         0.0770 
    107 H107       28.8260    2.3791   -3.7540 H         1 UNK         0.0814 
    108 H108       28.5658    0.6713   -3.4375 H         1 UNK         0.0814 
    109 H109       27.2440    1.6785   -4.0208 H         1 UNK         0.0814 
    110 H110       26.2488    1.5076   -6.3193 H         1 UNK         0.2983 
    111 H111       26.3876    4.0801   -7.5140 H         1 UNK         0.0947 
    112 H112       24.1091    3.4891   -8.3836 H         1 UNK         0.0806 
    113 H113       24.2726    3.1154   -6.6756 H         1 UNK         0.0806 
    114 H114       24.3438    1.8225   -7.8707 H         1 UNK         0.0806 
    115 H115       26.8228    0.8332   -8.8882 H         1 UNK         0.3000 
    116 H116       27.0926    1.6883  -11.6306 H         1 UNK         0.0850 
    117 H117       27.8388   -0.5835  -12.0323 H         1 UNK         0.0810 
    118 H118       26.5624   -0.6916  -10.8294 H         1 UNK         0.0810 
    119 H119       28.2583   -0.8321  -10.3505 H         1 UNK         0.0810 
    120 H120       29.1433    2.1664   -8.9540 H         1 UNK         0.3040 
    121 H121       31.1750    2.8797   -8.5811 H         1 UNK         0.0766 
    122 H122       30.5535    4.6692  -10.2182 H         1 UNK         0.0812 
    123 H123       32.2802    4.3525  -10.2130 H         1 UNK         0.0812 
    124 H124       31.2853    3.7321  -11.5208 H         1 UNK         0.0812 
    125 H125       30.9793    0.1290   -8.9817 H         1 UNK         0.3205 
    126 H126       32.9818   -0.9401  -10.7022 H         1 UNK         0.0754 
    127 H127       32.6333   -3.0172   -9.3920 H         1 UNK         0.0769 
    128 H128       31.0838   -2.2607   -9.7353 H         1 UNK         0.0769 
    129 H129       31.8071   -2.1120   -8.1329 H         1 UNK         0.0769 
    130 H130       33.2654    0.5954   -7.6031 H         1 UNK         0.2981 
    131 H131       35.9425   -0.3680   -6.9842 H         1 UNK         0.0541 
    132 H132       36.4016    2.7658   -9.4598 H         1 UNK         0.3459 
    133 H133       34.8957    1.8852   -9.3979 H         1 UNK         0.3459 
    134 H134       34.3121    1.9033   -5.7321 H         1 UNK         0.0612 
    135 H135       35.8624    1.3519   -5.1539 H         1 UNK         0.0612 
    136 H136       32.2850    1.1606   -4.2491 H         1 UNK         0.0624 
    137 H137       32.1513    0.3548   -5.7962 H         1 UNK         0.0624 
@<TRIPOS>BOND
     1    1    2 1    
     2    1   72 1    
     3    1   73 1    
     4    1   74 1    
     5    2    3 2    
     6    2    4 am   BACKBONE|DICT|INTERRES
     7    4    5 1    
     8    4   75 1    
     9    5    6 1    
    10    5   35 1    
    11    5   76 1    
    12    6    7 1    
    13    6   77 1    
    14    6   78 1    
    15    7    8 1    
    16    8    9 1    
    17    8   79 1    
    18    8   80 1    
    19    9   10 ar   
    20    9   14 ar   
    21   10   11 ar   
    22   10   81 1    
    23   11   12 ar   
    24   11   71 1    
    25   12   13 ar   
    26   12   82 1    
    27   13   14 ar   
    28   13   15 1    
    29   14   83 1    
    30   15   16 1    
    31   15   84 1    
    32   15   85 1    
    33   16   17 1    
    34   17   18 1    
    35   17   86 1    
    36   17   87 1    
    37   18   19 1    
    38   18   37 1    
    39   18   88 1    
    40   19   20 am   BACKBONE|DICT|INTERRES
    41   19   89 1    
    42   20   21 2    
    43   20   22 1    
    44   22   23 1    
    45   22   24 1    
    46   22   90 1    
    47   23   91 1    
    48   23   92 1    
    49   23   93 1    
    50   24   25 am   BACKBONE|DICT|INTERRES
    51   24   94 1    
    52   25   26 2    
    53   25   27 1    
    54   27   28 1    
    55   27   29 1    
    56   27   95 1    
    57   28   96 1    
    58   28   97 1    
    59   28   98 1    
    60   29   30 am   BACKBONE|DICT|INTERRES
    61   29   99 1    
    62   30   31 2    
    63   30   32 1    
    64   32   33 1    
    65   32   34 1    
    66   32  100 1    
    67   33  101 1    
    68   33  102 1    
    69   33  103 1    
    70   34   35 am   BACKBONE|DICT|INTERRES
    71   34  104 1    
    72   35   36 2    
    73   37   38 2    
    74   37   39 am   BACKBONE|DICT|INTERRES
    75   39   40 1    
    76   39  105 1    
    77   40   41 1    
    78   40   42 1    
    79   40  106 1    
    80   41  107 1    
    81   41  108 1    
    82   41  109 1    
    83   42   43 2    
    84   42   44 am   BACKBONE|DICT|INTERRES
    85   44   45 1    
    86   44  110 1    
    87   45   46 1    
    88   45   47 1    
    89   45  111 1    
    90   46  112 1    
    91   46  113 1    
    92   46  114 1    
    93   47   48 2    
    94   47   49 am   BACKBONE|DICT|INTERRES
    95   49   50 1    
    96   49  115 1    
    97   50   51 1    
    98   50   52 1    
    99   50  116 1    
   100   51  117 1    
   101   51  118 1    
   102   51  119 1    
   103   52   53 2    
   104   52   54 am   BACKBONE|DICT|INTERRES
   105   54   55 1    
   106   54  120 1    
   107   55   56 1    
   108   55   57 1    
   109   55  121 1    
   110   56  122 1    
   111   56  123 1    
   112   56  124 1    
   113   57   58 2    
   114   57   59 am   BACKBONE|DICT|INTERRES
   115   59   60 1    
   116   59  125 1    
   117   60   61 1    
   118   60   62 1    
   119   60  126 1    
   120   61  127 1    
   121   61  128 1    
   122   61  129 1    
   123   62   63 2    
   124   62   64 am   BACKBONE|DICT|INTERRES
   125   64   65 1    
   126   64  130 1    
   127   65   66 1    
   128   65   69 1    
   129   65  131 1    
   130   66   67 am   BACKBONE|DICT|INTERRES
   131   66   68 2    
   132   67  132 1    
   133   67  133 1    
   134   69   70 1    
   135   69  134 1    
   136   69  135 1    
   137   70   71 1    
   138   71  136 1    
   139   71  137 1    
@<TRIPOS>SUBSTRUCTURE
     1 UNK         1 GROUP             0       ****    0 ROOT    
