@<TRIPOS>MOLECULE
3R137
137   139    1
SMALL
USER_CHARGES


@<TRIPOS>ATOM
      1 CA         29.6080   -5.1449   -2.5093 C.3       0 UNK        -0.2020 
      2 C          28.8478   -4.2703   -1.5243 C.2       0 UNK         0.4855 
      3 O          28.3281   -4.7751   -0.5293 O.2       0 UNK        -0.5197 
      4 N          28.7786   -2.9611   -1.7949 N.am      1 UNK        -0.4892 
      5 CA         28.1330   -1.9501   -0.9439 C.3       1 UNK         0.0835 
      6 C6         28.5435   -0.5175   -1.3666 C.3       12 UNK        -0.0855 
      7 S7         30.3187   -0.1939   -1.1109 S.3       12 UNK        -0.2931 
      8 C8         30.8796    0.2121   -2.7922 C.3       12 UNK         0.0378 
      9 C9         31.2240   -1.0338   -3.5952 C.ar      12 UNK        -0.0802 
     10 C10        32.4286   -1.6989   -3.3506 C.ar      12 UNK        -0.0944 
     11 C11        32.8106   -2.7926   -4.1327 C.ar      12 UNK        -0.0787 
     12 C12        31.9403   -3.2653   -5.1177 C.ar      12 UNK        -0.0862 
     13 C13        30.7449   -2.5955   -5.3912 C.ar      12 UNK        -0.0733 
     14 C14        30.3917   -1.4761   -4.6288 C.ar      12 UNK        -0.0832 
     15 C15        29.8956   -3.0405   -6.5722 C.3       12 UNK         0.0240 
     16 S16        28.5088   -4.1146   -6.0878 S.3       12 UNK        -0.2522 
     17 C17        27.2445   -2.9352   -5.5113 C.3       12 UNK        -0.0967 
     18 CA         26.6110   -2.0927   -6.6577 C.3       5 UNK         0.0660 
     19 N          25.1527   -2.0332   -6.5656 N.am      5 UNK        -0.4015 
     20 C          24.3291   -1.7577   -7.5871 C.2       4 UNK         0.4946 
     21 O          24.7014   -1.6291   -8.7535 O.2       4 UNK        -0.5353 
     22 CA         22.8341   -1.5861   -7.2571 C.3       4 UNK         0.0277 
     23 CB         22.0698   -2.8897   -7.5391 C.3       4 UNK        -0.1981 
     24 N          22.5850   -1.1697   -5.8735 N.am      4 UNK        -0.4209 
     25 C          22.9078    0.0307   -5.3711 C.2       3 UNK         0.4942 
     26 O          23.4157    0.9366   -6.0316 O.2       3 UNK        -0.5208 
     27 CA         22.6933    0.2210   -3.8585 C.3       3 UNK         0.0250 
     28 CB         21.2325    0.5943   -3.5604 C.3       3 UNK        -0.1990 
     29 N          23.0835   -0.9458   -3.0523 N.am      3 UNK        -0.4232 
     30 C          24.3098   -1.4862   -3.0488 C.2       2 UNK         0.4993 
     31 O          25.2269   -1.0928   -3.7747 O.2       2 UNK        -0.5286 
     32 CA         24.5511   -2.6973   -2.1348 C.3       2 UNK         0.0209 
     33 CB         24.0929   -3.9945   -2.8214 C.3       2 UNK        -0.1931 
     34 N          25.9809   -2.7913   -1.8309 N.am      2 UNK        -0.4546 
     35 C          26.5910   -2.0457   -0.9004 C.2       1 UNK         0.5154 
     36 O          25.9772   -1.4024   -0.0465 O.2       1 UNK        -0.5181 
     37 C          27.1705   -0.6597   -6.6965 C.2       5 UNK         0.5014 
     38 O          27.9081   -0.3190   -7.6181 O.2       5 UNK        -0.5248 
     39 N          26.7814    0.1663   -5.7132 N.am      6 UNK        -0.4434 
     40 CA         27.1855    1.5692   -5.5704 C.3       6 UNK         0.0363 
     41 CB         26.5327    2.1612   -4.3123 C.3       6 UNK        -0.1936 
     42 C          26.8724    2.4310   -6.8072 C.2       6 UNK         0.5081 
     43 O          27.6864    3.2779   -7.1751 O.2       6 UNK        -0.5248 
     44 N          25.7403    2.1520   -7.4688 N.am      7 UNK        -0.4718 
     45 CA         25.3362    2.7458   -8.7475 C.3       7 UNK         0.0273 
     46 CB         23.9231    2.2543   -9.1007 C.3       7 UNK        -0.1935 
     47 C          26.3032    2.4747   -9.9195 C.2       7 UNK         0.5018 
     48 O          26.3059    3.2513  -10.8752 O.2       7 UNK        -0.5186 
     49 N          27.1084    1.4059   -9.8326 N.am      8 UNK        -0.4240 
     50 CA         28.1400    1.0457  -10.8099 C.3       8 UNK         0.0235 
     51 CB         28.1349   -0.4828  -10.9960 C.3       8 UNK        -0.2000 
     52 C          29.5412    1.5534  -10.4087 C.2       8 UNK         0.4941 
     53 O          30.5032    1.2262  -11.1057 O.2       8 UNK        -0.5273 
     54 N          29.6265    2.3421   -9.3240 N.am      9 UNK        -0.4262 
     55 CA         30.8180    2.8835   -8.6566 C.3       9 UNK         0.0264 
     56 CB         31.7777    3.5912   -9.6360 C.3       9 UNK        -0.1955 
     57 C          31.5468    1.8354   -7.7975 C.2       9 UNK         0.5031 
     58 O          31.4566    0.6318   -8.0529 O.2       9 UNK        -0.5390 
     59 N          32.2534    2.3307   -6.7710 N.am      10 UNK        -0.4204 
     60 CA         32.9494    1.5434   -5.7510 C.3       10 UNK         0.0237 
     61 CB         33.5573    2.4844   -4.6971 C.3       10 UNK        -0.1985 
     62 C          34.0104    0.6021   -6.3438 C.2       10 UNK         0.4970 
     63 O          35.0658    1.0662   -6.7797 O.2       10 UNK        -0.4914 
     64 N          33.6805   -0.6933   -6.3564 N.am      11 UNK        -0.4285 
     65 CA         34.4743   -1.8032   -6.9031 C.3       11 UNK         0.1007 
     66 C          34.7292   -1.7097   -8.4381 C.2       11 UNK         0.5703 
     67 N          33.8923   -1.0075   -9.1954 N.am      11 UNK        -0.7361 
     68 O          35.6719   -2.3035   -8.9570 O.2       11 UNK        -0.4986 
     69 C69        35.7478   -2.1262   -6.0663 C.3       12 UNK        -0.0947 
     70 S70        35.5351   -2.2076   -4.2451 S.3       12 UNK        -0.2240 
     71 C71        34.1907   -3.4165   -3.9612 C.3       12 UNK         0.0194 
     72 H72        28.9306   -5.8547   -2.9833 H         1 UNK         0.0906 
     73 H73        30.0831   -4.5563   -3.2929 H         1 UNK         0.0906 
     74 H74        30.3857   -5.7062   -1.9923 H         1 UNK         0.0906 
     75 H75        29.2786   -2.5979   -2.5945 H         1 UNK         0.3140 
     76 H76        28.4742   -2.1147    0.0808 H         1 UNK         0.1085 
     77 H77        28.2674   -0.3335   -2.4067 H         1 UNK         0.0836 
     78 H78        28.0058    0.2304   -0.7796 H         1 UNK         0.0836 
     79 H79        30.1324    0.8210   -3.3040 H         1 UNK         0.0731 
     80 H80        31.7693    0.8386   -2.7121 H         1 UNK         0.0731 
     81 H81        33.0956   -1.3328   -2.5817 H         1 UNK         0.1312 
     82 H82        32.2256   -4.1170   -5.7207 H         1 UNK         0.1406 
     83 H83        29.4890   -0.9291   -4.8603 H         1 UNK         0.1631 
     84 H84        29.5465   -2.1763   -7.1320 H         1 UNK         0.0717 
     85 H85        30.5143   -3.5983   -7.2770 H         1 UNK         0.0717 
     86 H86        26.4788   -3.5511   -5.0403 H         1 UNK         0.0934 
     87 H87        27.6421   -2.3266   -4.6985 H         1 UNK         0.0934 
     88 H88        26.8539   -2.5626   -7.6138 H         1 UNK         0.0739 
     89 H89        24.7710   -2.0383   -5.6297 H         1 UNK         0.3093 
     90 H90        22.4427   -0.8091   -7.9177 H         1 UNK         0.0818 
     91 H91        20.9975   -2.7621   -7.3895 H         1 UNK         0.0819 
     92 H92        22.2141   -3.2102   -8.5721 H         1 UNK         0.0819 
     93 H93        22.4057   -3.7041   -6.8959 H         1 UNK         0.0819 
     94 H94        22.1663   -1.8514   -5.2573 H         1 UNK         0.3041 
     95 H95        23.3253    1.0550   -3.5463 H         1 UNK         0.0784 
     96 H96        20.9277    1.4679   -4.1388 H         1 UNK         0.0793 
     97 H97        20.5465   -0.2165   -3.8089 H         1 UNK         0.0793 
     98 H98        21.0930    0.8419   -2.5079 H         1 UNK         0.0793 
     99 H99        22.3765   -1.3305   -2.4415 H         1 UNK         0.3024 
    100 H100       23.9867   -2.5641   -1.2087 H         1 UNK         0.1171 
    101 H101       24.2891   -4.8631   -2.1925 H         1 UNK         0.0786 
    102 H102       23.0200   -3.9766   -3.0171 H         1 UNK         0.0786 
    103 H103       24.5940   -4.1550   -3.7758 H         1 UNK         0.0786 
    104 H104       26.5622   -3.2709   -2.5008 H         1 UNK         0.2977 
    105 H105       26.1633   -0.2045   -4.9906 H         1 UNK         0.3127 
    106 H106       28.2686    1.5803   -5.4325 H         1 UNK         0.0770 
    107 H107       25.4448    2.1617   -4.3879 H         1 UNK         0.0814 
    108 H108       26.8503    3.1930   -4.1564 H         1 UNK         0.0814 
    109 H109       26.8052    1.5986   -3.4192 H         1 UNK         0.0814 
    110 H110       25.0930    1.4889   -7.0525 H         1 UNK         0.2983 
    111 H111       25.2987    3.8282   -8.6078 H         1 UNK         0.0947 
    112 H112       23.5776    2.6917  -10.0384 H         1 UNK         0.0806 
    113 H113       23.2025    2.5309   -8.3308 H         1 UNK         0.0806 
    114 H114       23.8925    1.1698   -9.2142 H         1 UNK         0.0806 
    115 H115       27.0866    0.8341   -8.9922 H         1 UNK         0.3000 
    116 H116       27.9036    1.4978  -11.7754 H         1 UNK         0.0850 
    117 H117       28.8081   -0.7808  -11.8008 H         1 UNK         0.0810 
    118 H118       27.1409   -0.8498  -11.2527 H         1 UNK         0.0810 
    119 H119       28.4611   -1.0008  -10.0938 H         1 UNK         0.0810 
    120 H120       28.7649    2.5176   -8.8186 H         1 UNK         0.3040 
    121 H121       30.4290    3.6411   -7.9741 H         1 UNK         0.0766 
    122 H122       31.2462    4.2951  -10.2764 H         1 UNK         0.0812 
    123 H123       32.3035    2.8827  -10.2767 H         1 UNK         0.0812 
    124 H124       32.5389    4.1559   -9.0968 H         1 UNK         0.0812 
    125 H125       32.3017    3.3335   -6.6638 H         1 UNK         0.3205 
    126 H126       32.1913    0.9386   -5.2547 H         1 UNK         0.0754 
    127 H127       34.0754    1.9165   -3.9228 H         1 UNK         0.0769 
    128 H128       32.7885    3.0778   -4.2018 H         1 UNK         0.0769 
    129 H129       34.2820    3.1709   -5.1371 H         1 UNK         0.0769 
    130 H130       32.7785   -0.9615   -5.9889 H         1 UNK         0.2981 
    131 H131       33.8361   -2.6795   -6.8310 H         1 UNK         0.0541 
    132 H132       34.0490   -0.9565  -10.1890 H         1 UNK         0.3459 
    133 H133       33.1030   -0.5239   -8.7815 H         1 UNK         0.3459 
    134 H134       36.5145   -1.3757   -6.2648 H         1 UNK         0.0612 
    135 H135       36.1723   -3.0785   -6.3884 H         1 UNK         0.0612 
    136 H136       34.3285   -4.2709   -4.6255 H         1 UNK         0.0624 
    137 H137       34.2748   -3.7989   -2.9432 H         1 UNK         0.0624 
@<TRIPOS>BOND
     1    1    2 1    
     2    1   72 1    
     3    1   73 1    
     4    1   74 1    
     5    2    3 2    
     6    2    4 am   BACKBONE|DICT|INTERRES
     7    4    5 1    
     8    4   75 1    
     9    5    6 1    
    10    5   35 1    
    11    5   76 1    
    12    6    7 1    
    13    6   77 1    
    14    6   78 1    
    15    7    8 1    
    16    8    9 1    
    17    8   79 1    
    18    8   80 1    
    19    9   10 ar   
    20    9   14 ar   
    21   10   11 ar   
    22   10   81 1    
    23   11   12 ar   
    24   11   71 1    
    25   12   13 ar   
    26   12   82 1    
    27   13   14 ar   
    28   13   15 1    
    29   14   83 1    
    30   15   16 1    
    31   15   84 1    
    32   15   85 1    
    33   16   17 1    
    34   17   18 1    
    35   17   86 1    
    36   17   87 1    
    37   18   19 1    
    38   18   37 1    
    39   18   88 1    
    40   19   20 am   BACKBONE|DICT|INTERRES
    41   19   89 1    
    42   20   21 2    
    43   20   22 1    
    44   22   23 1    
    45   22   24 1    
    46   22   90 1    
    47   23   91 1    
    48   23   92 1    
    49   23   93 1    
    50   24   25 am   BACKBONE|DICT|INTERRES
    51   24   94 1    
    52   25   26 2    
    53   25   27 1    
    54   27   28 1    
    55   27   29 1    
    56   27   95 1    
    57   28   96 1    
    58   28   97 1    
    59   28   98 1    
    60   29   30 am   BACKBONE|DICT|INTERRES
    61   29   99 1    
    62   30   31 2    
    63   30   32 1    
    64   32   33 1    
    65   32   34 1    
    66   32  100 1    
    67   33  101 1    
    68   33  102 1    
    69   33  103 1    
    70   34   35 am   BACKBONE|DICT|INTERRES
    71   34  104 1    
    72   35   36 2    
    73   37   38 2    
    74   37   39 am   BACKBONE|DICT|INTERRES
    75   39   40 1    
    76   39  105 1    
    77   40   41 1    
    78   40   42 1    
    79   40  106 1    
    80   41  107 1    
    81   41  108 1    
    82   41  109 1    
    83   42   43 2    
    84   42   44 am   BACKBONE|DICT|INTERRES
    85   44   45 1    
    86   44  110 1    
    87   45   46 1    
    88   45   47 1    
    89   45  111 1    
    90   46  112 1    
    91   46  113 1    
    92   46  114 1    
    93   47   48 2    
    94   47   49 am   BACKBONE|DICT|INTERRES
    95   49   50 1    
    96   49  115 1    
    97   50   51 1    
    98   50   52 1    
    99   50  116 1    
   100   51  117 1    
   101   51  118 1    
   102   51  119 1    
   103   52   53 2    
   104   52   54 am   BACKBONE|DICT|INTERRES
   105   54   55 1    
   106   54  120 1    
   107   55   56 1    
   108   55   57 1    
   109   55  121 1    
   110   56  122 1    
   111   56  123 1    
   112   56  124 1    
   113   57   58 2    
   114   57   59 am   BACKBONE|DICT|INTERRES
   115   59   60 1    
   116   59  125 1    
   117   60   61 1    
   118   60   62 1    
   119   60  126 1    
   120   61  127 1    
   121   61  128 1    
   122   61  129 1    
   123   62   63 2    
   124   62   64 am   BACKBONE|DICT|INTERRES
   125   64   65 1    
   126   64  130 1    
   127   65   66 1    
   128   65   69 1    
   129   65  131 1    
   130   66   67 am   BACKBONE|DICT|INTERRES
   131   66   68 2    
   132   67  132 1    
   133   67  133 1    
   134   69   70 1    
   135   69  134 1    
   136   69  135 1    
   137   70   71 1    
   138   71  136 1    
   139   71  137 1    
@<TRIPOS>SUBSTRUCTURE
     1 UNK         1 GROUP             0       ****    0 ROOT    
