@<TRIPOS>MOLECULE
3R137
137   139    1
SMALL
USER_CHARGES


@<TRIPOS>ATOM
      1 CA         24.4346   -5.2265   -1.2519 C.3       0 UNK        -0.2020 
      2 C          25.3390   -4.0880   -1.7009 C.2       0 UNK         0.4855 
      3 O          25.8752   -4.1514   -2.8051 O.2       0 UNK        -0.5197 
      4 N          25.5013   -3.0715   -0.8425 N.am      1 UNK        -0.4892 
      5 CA         26.2523   -1.8203   -1.0422 C.3       1 UNK         0.0835 
      6 C6         27.7034   -1.9983   -1.5741 C.3       12 UNK        -0.0855 
      7 S7         28.7098   -3.0129   -0.4401 S.3       12 UNK        -0.2931 
      8 C8         30.3971   -2.6478   -1.0329 C.3       12 UNK         0.0378 
      9 C9         30.7498   -3.2224   -2.4060 C.ar      12 UNK        -0.0802 
     10 C10        31.8004   -2.6414   -3.1215 C.ar      12 UNK        -0.0944 
     11 C11        32.1900   -3.1426   -4.3680 C.ar      12 UNK        -0.0787 
     12 C12        31.5277   -4.2578   -4.8921 C.ar      12 UNK        -0.0862 
     13 C13        30.4804   -4.8597   -4.1862 C.ar      12 UNK        -0.0733 
     14 C14        30.0951   -4.3355   -2.9490 C.ar      12 UNK        -0.0832 
     15 C15        29.7907   -6.1058   -4.7294 C.3       12 UNK         0.0240 
     16 S16        28.9510   -5.8221   -6.3187 S.3       12 UNK        -0.2522 
     17 C17        27.6724   -4.6030   -5.8546 C.3       12 UNK        -0.0967 
     18 CA         26.9035   -4.0389   -7.0868 C.3       5 UNK         0.0660 
     19 N          25.5472   -3.5991   -6.7422 N.am      5 UNK        -0.4015 
     20 C          25.2236   -2.5881   -5.9236 C.2       4 UNK         0.4946 
     21 O          26.0455   -1.8913   -5.3230 O.2       4 UNK        -0.5353 
     22 CA         23.7177   -2.3324   -5.7543 C.3       4 UNK         0.0277 
     23 CB         23.0903   -3.3289   -4.7658 C.3       4 UNK        -0.1981 
     24 N          23.4872   -0.9753   -5.2636 N.am      4 UNK        -0.4209 
     25 C          23.1048    0.0531   -6.0314 C.2       3 UNK         0.4942 
     26 O          22.8173   -0.0598   -7.2242 O.2       3 UNK        -0.5208 
     27 CA         22.9928    1.4446   -5.3804 C.3       3 UNK         0.0250 
     28 CB         21.5212    1.8858   -5.2981 C.3       3 UNK        -0.1990 
     29 N          23.5819    1.5249   -4.0431 N.am      3 UNK        -0.4232 
     30 C          24.8922    1.6201   -3.7834 C.2       2 UNK         0.4993 
     31 O          25.7615    1.6638   -4.6514 O.2       2 UNK        -0.5286 
     32 CA         25.3088    1.7067   -2.3034 C.3       2 UNK         0.0209 
     33 CB         24.1631    2.1273   -1.3529 C.3       2 UNK        -0.1931 
     34 N          25.9440    0.4770   -1.8138 N.am      2 UNK        -0.4546 
     35 C          25.4382   -0.7670   -1.8277 C.2       1 UNK         0.5154 
     36 O          24.3568   -1.0593   -2.3474 O.2       1 UNK        -0.5181 
     37 C          27.6849   -2.9573   -7.8745 C.2       5 UNK         0.5014 
     38 O          27.0897   -2.0272   -8.4257 O.2       5 UNK        -0.5248 
     39 N          29.0145   -3.1056   -7.9301 N.am      6 UNK        -0.4434 
     40 CA         29.9446   -2.1786   -8.5780 C.3       6 UNK         0.0363 
     41 CB         31.3154   -2.8547   -8.7232 C.3       6 UNK        -0.1936 
     42 C          30.0745   -0.8333   -7.8434 C.2       6 UNK         0.5081 
     43 O          30.5472    0.1310   -8.4455 O.2       6 UNK        -0.5248 
     44 N          29.6217   -0.7643   -6.5820 N.am      7 UNK        -0.4718 
     45 CA         29.5562    0.4514   -5.7635 C.3       7 UNK         0.0273 
     46 CB         29.0233    0.0977   -4.3668 C.3       7 UNK        -0.1935 
     47 C          28.7216    1.5776   -6.4007 C.2       7 UNK         0.5018 
     48 O          29.0411    2.7492   -6.1956 O.2       7 UNK        -0.5186 
     49 N          27.7396    1.2099   -7.2380 N.am      8 UNK        -0.4240 
     50 CA         26.9580    2.1207   -8.0792 C.3       8 UNK         0.0235 
     51 CB         25.8580    1.3180   -8.7892 C.3       8 UNK        -0.2000 
     52 C          27.8030    2.8953   -9.1115 C.2       8 UNK         0.4941 
     53 O          27.3966    3.9824   -9.5226 O.2       8 UNK        -0.5273 
     54 N          28.9620    2.3400   -9.4921 N.am      9 UNK        -0.4262 
     55 CA         29.9696    2.9544  -10.3575 C.3       9 UNK         0.0264 
     56 CB         30.2540    1.9986  -11.5310 C.3       9 UNK        -0.1955 
     57 C          31.2525    3.2788   -9.5656 C.2       9 UNK         0.5031 
     58 O          32.3255    3.3739  -10.1659 O.2       9 UNK        -0.5390 
     59 N          31.1374    3.4069   -8.2323 N.am      10 UNK        -0.4204 
     60 CA         32.2096    3.6674   -7.2616 C.3       10 UNK         0.0237 
     61 CB         32.7536    5.1022   -7.4315 C.3       10 UNK        -0.1985 
     62 C          33.3299    2.6053   -7.2582 C.2       10 UNK         0.4970 
     63 O          34.4599    2.9199   -6.8803 O.2       10 UNK        -0.4914 
     64 N          33.0017    1.3762   -7.6811 N.am      11 UNK        -0.4285 
     65 CA         33.9138    0.2321   -7.8390 C.3       11 UNK         0.1007 
     66 C          34.9990    0.4270   -8.9416 C.2       11 UNK         0.5703 
     67 N          34.8303    1.3568   -9.8767 N.am      11 UNK        -0.7361 
     68 O          35.9927   -0.2952   -8.9765 O.2       11 UNK        -0.4986 
     69 C69        34.4805   -0.2889   -6.4862 C.3       12 UNK        -0.0947 
     70 S70        33.1491   -0.7057   -5.3091 S.3       12 UNK        -0.2240 
     71 C71        33.3503   -2.5066   -5.1270 C.3       12 UNK         0.0194 
     72 H72        24.9921   -6.1626   -1.2354 H         1 UNK         0.0906 
     73 H73        24.0250   -5.0581   -0.2561 H         1 UNK         0.0906 
     74 H74        23.6023   -5.3381   -1.9465 H         1 UNK         0.0906 
     75 H75        24.9992   -3.1094    0.0333 H         1 UNK         0.3140 
     76 H76        26.3386   -1.4003   -0.0383 H         1 UNK         0.1085 
     77 H77        28.1990   -1.0318   -1.6727 H         1 UNK         0.0836 
     78 H78        27.7150   -2.4387   -2.5724 H         1 UNK         0.0836 
     79 H79        31.1060   -3.0478   -0.3070 H         1 UNK         0.0731 
     80 H80        30.5379   -1.5656   -1.0342 H         1 UNK         0.0731 
     81 H81        32.3245   -1.7921   -2.7043 H         1 UNK         0.1312 
     82 H82        31.8340   -4.6717   -5.8429 H         1 UNK         0.1406 
     83 H83        29.2928   -4.8121   -2.4030 H         1 UNK         0.1631 
     84 H84        29.0638   -6.4949   -4.0144 H         1 UNK         0.0717 
     85 H85        30.5366   -6.8904   -4.8632 H         1 UNK         0.0717 
     86 H86        26.9775   -5.1147   -5.1862 H         1 UNK         0.0934 
     87 H87        28.1060   -3.7975   -5.2582 H         1 UNK         0.0934 
     88 H88        26.7527   -4.8581   -7.7915 H         1 UNK         0.0739 
     89 H89        24.8025   -4.0911   -7.2142 H         1 UNK         0.3093 
     90 H90        23.2393   -2.4714   -6.7262 H         1 UNK         0.0818 
     91 H91        23.4817   -3.1920   -3.7589 H         1 UNK         0.0819 
     92 H92        22.0080   -3.2082   -4.7190 H         1 UNK         0.0819 
     93 H93        23.2905   -4.3608   -5.0566 H         1 UNK         0.0819 
     94 H94        23.7839   -0.8007   -4.3078 H         1 UNK         0.3041 
     95 H95        23.5218    2.1444   -6.0313 H         1 UNK         0.0784 
     96 H96        21.0558    1.8827   -6.2848 H         1 UNK         0.0793 
     97 H97        20.9360    1.2223   -4.6602 H         1 UNK         0.0793 
     98 H98        21.4312    2.8984   -4.9042 H         1 UNK         0.0793 
     99 H99        22.9449    1.4676   -3.2617 H         1 UNK         0.3024 
    100 H100       26.0697    2.4882   -2.2593 H         1 UNK         0.1171 
    101 H101       23.3862    1.3661   -1.2738 H         1 UNK         0.0786 
    102 H102       23.6919    3.0532   -1.6863 H         1 UNK         0.0786 
    103 H103       24.5414    2.3106   -0.3471 H         1 UNK         0.0786 
    104 H104       26.8448    0.6142   -1.3778 H         1 UNK         0.2977 
    105 H105       29.4151   -3.9113   -7.4647 H         1 UNK         0.3127 
    106 H106       29.5627   -1.9642   -9.5784 H         1 UNK         0.0770 
    107 H107       31.7765   -3.0394   -7.7541 H         1 UNK         0.0814 
    108 H108       31.9974   -2.2292   -9.2996 H         1 UNK         0.0814 
    109 H109       31.2369   -3.8076   -9.2469 H         1 UNK         0.0814 
    110 H110       29.2455   -1.6041   -6.1678 H         1 UNK         0.2983 
    111 H111       30.5751    0.8280   -5.6562 H         1 UNK         0.0947 
    112 H112       29.6512   -0.6480   -3.8792 H         1 UNK         0.0806 
    113 H113       28.0057   -0.2929   -4.4117 H         1 UNK         0.0806 
    114 H114       29.0030    0.9783   -3.7236 H         1 UNK         0.0806 
    115 H115       27.5461    0.2215   -7.3375 H         1 UNK         0.3000 
    116 H116       26.4856    2.8515   -7.4194 H         1 UNK         0.0850 
    117 H117       25.2067    1.9724   -9.3701 H         1 UNK         0.0810 
    118 H118       25.2320    0.7891   -8.0719 H         1 UNK         0.0810 
    119 H119       26.2761    0.5778   -9.4730 H         1 UNK         0.0810 
    120 H120       29.2391    1.4532   -9.0799 H         1 UNK         0.3040 
    121 H121       29.6010    3.8979  -10.7644 H         1 UNK         0.0766 
    122 H122       29.3426    1.7651  -12.0814 H         1 UNK         0.0812 
    123 H123       30.6882    1.0589  -11.1865 H         1 UNK         0.0812 
    124 H124       30.9536    2.4421  -12.2406 H         1 UNK         0.0812 
    125 H125       30.2183    3.2838   -7.8194 H         1 UNK         0.3205 
    126 H126       31.7436    3.6072   -6.2770 H         1 UNK         0.0754 
    127 H127       33.4440    5.3596   -6.6273 H         1 UNK         0.0769 
    128 H128       31.9483    5.8365   -7.4101 H         1 UNK         0.0769 
    129 H129       33.2914    5.2210   -8.3727 H         1 UNK         0.0769 
    130 H130       32.0482    1.1932   -7.9799 H         1 UNK         0.2981 
    131 H131       33.2882   -0.5653   -8.2365 H         1 UNK         0.0541 
    132 H132       34.0154    1.9578   -9.8697 H         1 UNK         0.3459 
    133 H133       35.5305    1.4681  -10.5924 H         1 UNK         0.3459 
    134 H134       35.1013   -1.1724   -6.6434 H         1 UNK         0.0612 
    135 H135       35.1293    0.4568   -6.0253 H         1 UNK         0.0612 
    136 H136       34.2792   -2.7085   -4.5922 H         1 UNK         0.0624 
    137 H137       33.4558   -2.9545   -6.1155 H         1 UNK         0.0624 
@<TRIPOS>BOND
     1    1    2 1    
     2    1   72 1    
     3    1   73 1    
     4    1   74 1    
     5    2    3 2    
     6    2    4 am   BACKBONE|DICT|INTERRES
     7    4    5 1    
     8    4   75 1    
     9    5    6 1    
    10    5   35 1    
    11    5   76 1    
    12    6    7 1    
    13    6   77 1    
    14    6   78 1    
    15    7    8 1    
    16    8    9 1    
    17    8   79 1    
    18    8   80 1    
    19    9   10 ar   
    20    9   14 ar   
    21   10   11 ar   
    22   10   81 1    
    23   11   12 ar   
    24   11   71 1    
    25   12   13 ar   
    26   12   82 1    
    27   13   14 ar   
    28   13   15 1    
    29   14   83 1    
    30   15   16 1    
    31   15   84 1    
    32   15   85 1    
    33   16   17 1    
    34   17   18 1    
    35   17   86 1    
    36   17   87 1    
    37   18   19 1    
    38   18   37 1    
    39   18   88 1    
    40   19   20 am   BACKBONE|DICT|INTERRES
    41   19   89 1    
    42   20   21 2    
    43   20   22 1    
    44   22   23 1    
    45   22   24 1    
    46   22   90 1    
    47   23   91 1    
    48   23   92 1    
    49   23   93 1    
    50   24   25 am   BACKBONE|DICT|INTERRES
    51   24   94 1    
    52   25   26 2    
    53   25   27 1    
    54   27   28 1    
    55   27   29 1    
    56   27   95 1    
    57   28   96 1    
    58   28   97 1    
    59   28   98 1    
    60   29   30 am   BACKBONE|DICT|INTERRES
    61   29   99 1    
    62   30   31 2    
    63   30   32 1    
    64   32   33 1    
    65   32   34 1    
    66   32  100 1    
    67   33  101 1    
    68   33  102 1    
    69   33  103 1    
    70   34   35 am   BACKBONE|DICT|INTERRES
    71   34  104 1    
    72   35   36 2    
    73   37   38 2    
    74   37   39 am   BACKBONE|DICT|INTERRES
    75   39   40 1    
    76   39  105 1    
    77   40   41 1    
    78   40   42 1    
    79   40  106 1    
    80   41  107 1    
    81   41  108 1    
    82   41  109 1    
    83   42   43 2    
    84   42   44 am   BACKBONE|DICT|INTERRES
    85   44   45 1    
    86   44  110 1    
    87   45   46 1    
    88   45   47 1    
    89   45  111 1    
    90   46  112 1    
    91   46  113 1    
    92   46  114 1    
    93   47   48 2    
    94   47   49 am   BACKBONE|DICT|INTERRES
    95   49   50 1    
    96   49  115 1    
    97   50   51 1    
    98   50   52 1    
    99   50  116 1    
   100   51  117 1    
   101   51  118 1    
   102   51  119 1    
   103   52   53 2    
   104   52   54 am   BACKBONE|DICT|INTERRES
   105   54   55 1    
   106   54  120 1    
   107   55   56 1    
   108   55   57 1    
   109   55  121 1    
   110   56  122 1    
   111   56  123 1    
   112   56  124 1    
   113   57   58 2    
   114   57   59 am   BACKBONE|DICT|INTERRES
   115   59   60 1    
   116   59  125 1    
   117   60   61 1    
   118   60   62 1    
   119   60  126 1    
   120   61  127 1    
   121   61  128 1    
   122   61  129 1    
   123   62   63 2    
   124   62   64 am   BACKBONE|DICT|INTERRES
   125   64   65 1    
   126   64  130 1    
   127   65   66 1    
   128   65   69 1    
   129   65  131 1    
   130   66   67 am   BACKBONE|DICT|INTERRES
   131   66   68 2    
   132   67  132 1    
   133   67  133 1    
   134   69   70 1    
   135   69  134 1    
   136   69  135 1    
   137   70   71 1    
   138   71  136 1    
   139   71  137 1    
@<TRIPOS>SUBSTRUCTURE
     1 UNK         1 GROUP             0       ****    0 ROOT    
