@<TRIPOS>MOLECULE
3R137
137   139    1
SMALL
USER_CHARGES


@<TRIPOS>ATOM
      1 CA         25.5167   -4.0784    1.9888 C.3       0 UNK        -0.2020 
      2 C          25.9361   -3.2270    0.8007 C.2       0 UNK         0.4855 
      3 O          25.1757   -3.0997   -0.1585 O.2       0 UNK        -0.5197 
      4 N          27.1273   -2.6139    0.8690 N.am      1 UNK        -0.4892 
      5 CA         27.7875   -1.8193   -0.1877 C.3       1 UNK         0.0835 
      6 C6         28.0558   -2.6365   -1.4852 C.3       12 UNK        -0.0855 
      7 S7         29.0350   -4.1428   -1.1700 S.3       12 UNK        -0.2931 
      8 C8         30.6459   -3.6852   -1.8970 C.3       12 UNK         0.0378 
      9 C9         30.7449   -3.7945   -3.4212 C.ar      12 UNK        -0.0802 
     10 C10        31.8106   -3.1539   -4.0597 C.ar      12 UNK        -0.0944 
     11 C11        32.0172   -3.2852   -5.4390 C.ar      12 UNK        -0.0787 
     12 C12        31.1292   -4.0716   -6.1826 C.ar      12 UNK        -0.0862 
     13 C13        30.0612   -4.7300   -5.5625 C.ar      12 UNK        -0.0733 
     14 C14        29.8694   -4.5776   -4.1857 C.ar      12 UNK        -0.0832 
     15 C15        29.1822   -5.6988   -6.3493 C.3       12 UNK         0.0240 
     16 S16        28.2499   -4.9220   -7.7068 S.3       12 UNK        -0.2522 
     17 C17        26.9775   -3.9679   -6.8106 C.3       12 UNK        -0.0967 
     18 CA         26.6984   -2.6017   -7.4849 C.3       5 UNK         0.0660 
     19 N          25.4261   -2.0196   -7.0446 N.am      5 UNK        -0.4015 
     20 C          24.9129   -0.8613   -7.4869 C.2       4 UNK         0.4946 
     21 O          25.4169   -0.1949   -8.3904 O.2       4 UNK        -0.5353 
     22 CA         23.6496   -0.3162   -6.7970 C.3       4 UNK         0.0277 
     23 CB         22.4250   -0.5106   -7.7057 C.3       4 UNK        -0.1981 
     24 N          23.3530   -0.8612   -5.4661 N.am      4 UNK        -0.4209 
     25 C          24.1606   -0.8398   -4.3960 C.2       3 UNK         0.4942 
     26 O          25.3398   -0.4754   -4.4245 O.2       3 UNK        -0.5208 
     27 CA         23.5430   -1.3843   -3.0959 C.3       3 UNK         0.0250 
     28 CB         23.6494   -2.9180   -3.0637 C.3       3 UNK        -0.1990 
     29 N          24.1728   -0.8403   -1.8918 N.am      3 UNK        -0.4232 
     30 C          24.1789    0.4533   -1.5286 C.2       2 UNK         0.4993 
     31 O          23.5638    1.3344   -2.1314 O.2       2 UNK        -0.5286 
     32 CA         24.9890    0.8380   -0.2727 C.3       2 UNK         0.0209 
     33 CB         24.0497    1.1340    0.9086 C.3       2 UNK        -0.1931 
     34 N          25.9377   -0.2040    0.1247 N.am      2 UNK        -0.4546 
     35 C          27.0780   -0.4843   -0.5205 C.2       1 UNK         0.5154 
     36 O          27.5673    0.2645   -1.3657 O.2       1 UNK        -0.5181 
     37 C          27.8834   -1.6319   -7.3006 C.2       5 UNK         0.5014 
     38 O          28.7017   -1.5066   -8.2119 O.2       5 UNK        -0.5248 
     39 N          27.9264   -0.9238   -6.1606 N.am      6 UNK        -0.4434 
     40 CA         28.9712    0.0578   -5.8680 C.3       6 UNK         0.0363 
     41 CB         28.8798    0.5086   -4.4049 C.3       6 UNK        -0.1936 
     42 C          28.9364    1.2668   -6.8152 C.2       6 UNK         0.5081 
     43 O          29.9954    1.7514   -7.2121 O.2       6 UNK        -0.5248 
     44 N          27.7281    1.7092   -7.1877 N.am      7 UNK        -0.4718 
     45 CA         27.5118    2.7760   -8.1646 C.3       7 UNK         0.0273 
     46 CB         26.0648    3.2866   -8.0683 C.3       7 UNK        -0.1935 
     47 C          27.8446    2.3175   -9.5927 C.2       7 UNK         0.5018 
     48 O          28.5466    3.0345  -10.3054 O.2       7 UNK        -0.5186 
     49 N          27.3612    1.1252   -9.9715 N.am      8 UNK        -0.4240 
     50 CA         27.5681    0.5103  -11.2854 C.3       8 UNK         0.0235 
     51 CB         26.7108   -0.7604  -11.4004 C.3       8 UNK        -0.2000 
     52 C          29.0423    0.1979  -11.5875 C.2       8 UNK         0.4941 
     53 O          29.5000    0.4680  -12.6985 O.2       8 UNK        -0.5273 
     54 N          29.7623   -0.3449  -10.5964 N.am      9 UNK        -0.4262 
     55 CA         31.1914   -0.6525  -10.6901 C.3       9 UNK         0.0264 
     56 CB         31.5411   -1.7182   -9.6381 C.3       9 UNK        -0.1955 
     57 C          32.1000    0.5786  -10.5174 C.2       9 UNK         0.5031 
     58 O          33.2928    0.4699  -10.8057 O.2       9 UNK        -0.5390 
     59 N          31.5442    1.6993  -10.0260 N.am      10 UNK        -0.4204 
     60 CA         32.2377    2.9214   -9.5937 C.3       10 UNK         0.0237 
     61 CB         32.8638    3.6628  -10.7940 C.3       10 UNK        -0.1985 
     62 C          33.2437    2.6203   -8.4647 C.2       10 UNK         0.4970 
     63 O          34.4138    2.9990   -8.5453 O.2       10 UNK        -0.4914 
     64 N          32.7574    1.8943   -7.4524 N.am      11 UNK        -0.4285 
     65 CA         33.5345    1.3469   -6.3338 C.3       11 UNK         0.1007 
     66 C          33.9070    2.3830   -5.2333 C.2       11 UNK         0.5703 
     67 N          33.3355    3.5820   -5.2300 N.am      11 UNK        -0.7361 
     68 O          34.7388    2.1008   -4.3745 O.2       11 UNK        -0.4986 
     69 C69        32.8255    0.0930   -5.7461 C.3       12 UNK        -0.0947 
     70 S70        33.9920   -1.2357   -5.3090 S.3       12 UNK        -0.2240 
     71 C71        33.2408   -2.6836   -6.1376 C.3       12 UNK         0.0194 
     72 H72        26.2718   -4.0844    2.7745 H         1 UNK         0.0906 
     73 H73        24.5871   -3.6997    2.4128 H         1 UNK         0.0906 
     74 H74        25.3514   -5.1071    1.6697 H         1 UNK         0.0906 
     75 H75        27.6859   -2.7428    1.7022 H         1 UNK         0.3140 
     76 H76        28.7567   -1.5285    0.2211 H         1 UNK         0.1085 
     77 H77        27.1184   -2.9312   -1.9596 H         1 UNK         0.0836 
     78 H78        28.5791   -2.0305   -2.2257 H         1 UNK         0.0836 
     79 H79        30.8997   -2.6727   -1.5785 H         1 UNK         0.0731 
     80 H80        31.4050   -4.3389   -1.4658 H         1 UNK         0.0731 
     81 H81        32.5064   -2.5834   -3.4609 H         1 UNK         0.1312 
     82 H82        31.2921   -4.2094   -7.2430 H         1 UNK         0.1406 
     83 H83        29.0634   -5.1145   -3.7063 H         1 UNK         0.1631 
     84 H84        29.8213   -6.4743   -6.7738 H         1 UNK         0.0717 
     85 H85        28.4806   -6.2155   -5.6924 H         1 UNK         0.0717 
     86 H86        26.0710   -4.5752   -6.8024 H         1 UNK         0.0934 
     87 H87        27.2640   -3.8392   -5.7647 H         1 UNK         0.0934 
     88 H88        26.5895   -2.7717   -8.5581 H         1 UNK         0.0739 
     89 H89        24.9445   -2.4930   -6.2956 H         1 UNK         0.3093 
     90 H90        23.8084    0.7566   -6.6689 H         1 UNK         0.0818 
     91 H91        21.5435   -0.0147   -7.2987 H         1 UNK         0.0819 
     92 H92        22.6008   -0.0871   -8.6960 H         1 UNK         0.0819 
     93 H93        22.1863   -1.5662   -7.8413 H         1 UNK         0.0819 
     94 H94        22.4149   -1.2147   -5.3398 H         1 UNK         0.3041 
     95 H95        22.4882   -1.1028   -3.0694 H         1 UNK         0.0784 
     96 H96        23.1602   -3.3702   -3.9273 H         1 UNK         0.0793 
     97 H97        24.6891   -3.2488   -3.0645 H         1 UNK         0.0793 
     98 H98        23.1720   -3.3288   -2.1735 H         1 UNK         0.0793 
     99 H99        24.6774   -1.5068   -1.3160 H         1 UNK         0.3024 
    100 H100       25.5459    1.7472   -0.5112 H         1 UNK         0.1171 
    101 H101       24.6071    1.4615    1.7864 H         1 UNK         0.0786 
    102 H102       23.3464    1.9295    0.6580 H         1 UNK         0.0786 
    103 H103       23.4641    0.2574    1.1886 H         1 UNK         0.0786 
    104 H104       25.6151   -0.8789    0.8035 H         1 UNK         0.2977 
    105 H105       27.1749   -1.0144   -5.4852 H         1 UNK         0.3127 
    106 H106       29.9298   -0.4429   -6.0058 H         1 UNK         0.0770 
    107 H107       27.9021    0.9315   -4.1695 H         1 UNK         0.0814 
    108 H108       29.6294    1.2686   -4.1802 H         1 UNK         0.0814 
    109 H109       29.0566   -0.3247   -3.7269 H         1 UNK         0.0814 
    110 H110       26.9110    1.2217   -6.8492 H         1 UNK         0.2983 
    111 H111       28.1797    3.6047   -7.9181 H         1 UNK         0.0947 
    112 H112       25.8942    4.1033   -8.7711 H         1 UNK         0.0806 
    113 H113       25.8448    3.6676   -7.0709 H         1 UNK         0.0806 
    114 H114       25.3388    2.5057   -8.2963 H         1 UNK         0.0806 
    115 H115       26.7612    0.6169   -9.3228 H         1 UNK         0.3000 
    116 H116       27.2223    1.2229  -12.0372 H         1 UNK         0.0850 
    117 H117       26.8244   -1.2221  -12.3822 H         1 UNK         0.0810 
    118 H118       25.6521   -0.5378  -11.2662 H         1 UNK         0.0810 
    119 H119       26.9922   -1.5040  -10.6541 H         1 UNK         0.0810 
    120 H120       29.3000   -0.5993   -9.7238 H         1 UNK         0.3040 
    121 H121       31.3941   -1.0724  -11.6777 H         1 UNK         0.0766 
    122 H122       30.9398   -2.6184   -9.7674 H         1 UNK         0.0812 
    123 H123       31.3726   -1.3484   -8.6262 H         1 UNK         0.0812 
    124 H124       32.5887   -2.0133   -9.7098 H         1 UNK         0.0812 
    125 H125       30.5520    1.6767   -9.8302 H         1 UNK         0.3205 
    126 H126       31.4741    3.5720   -9.1641 H         1 UNK         0.0754 
    127 H127       33.2852    4.6195  -10.4831 H         1 UNK         0.0769 
    128 H128       32.1183    3.8705  -11.5615 H         1 UNK         0.0769 
    129 H129       33.6682    3.0884  -11.2545 H         1 UNK         0.0769 
    130 H130       31.7545    1.7132   -7.4286 H         1 UNK         0.2981 
    131 H131       34.4852    1.0264   -6.7645 H         1 UNK         0.0541 
    132 H132       32.6521    3.8221   -5.9297 H         1 UNK         0.3459 
    133 H133       33.5884    4.2486   -4.5179 H         1 UNK         0.3459 
    134 H134       32.1336   -0.3188   -6.4805 H         1 UNK         0.0612 
    135 H135       32.2138    0.3383   -4.8758 H         1 UNK         0.0612 
    136 H136       34.0021   -3.4619   -6.2001 H         1 UNK         0.0624 
    137 H137       32.9982   -2.4160   -7.1659 H         1 UNK         0.0624 
@<TRIPOS>BOND
     1    1    2 1    
     2    1   72 1    
     3    1   73 1    
     4    1   74 1    
     5    2    3 2    
     6    2    4 am   BACKBONE|DICT|INTERRES
     7    4    5 1    
     8    4   75 1    
     9    5    6 1    
    10    5   35 1    
    11    5   76 1    
    12    6    7 1    
    13    6   77 1    
    14    6   78 1    
    15    7    8 1    
    16    8    9 1    
    17    8   79 1    
    18    8   80 1    
    19    9   10 ar   
    20    9   14 ar   
    21   10   11 ar   
    22   10   81 1    
    23   11   12 ar   
    24   11   71 1    
    25   12   13 ar   
    26   12   82 1    
    27   13   14 ar   
    28   13   15 1    
    29   14   83 1    
    30   15   16 1    
    31   15   84 1    
    32   15   85 1    
    33   16   17 1    
    34   17   18 1    
    35   17   86 1    
    36   17   87 1    
    37   18   19 1    
    38   18   37 1    
    39   18   88 1    
    40   19   20 am   BACKBONE|DICT|INTERRES
    41   19   89 1    
    42   20   21 2    
    43   20   22 1    
    44   22   23 1    
    45   22   24 1    
    46   22   90 1    
    47   23   91 1    
    48   23   92 1    
    49   23   93 1    
    50   24   25 am   BACKBONE|DICT|INTERRES
    51   24   94 1    
    52   25   26 2    
    53   25   27 1    
    54   27   28 1    
    55   27   29 1    
    56   27   95 1    
    57   28   96 1    
    58   28   97 1    
    59   28   98 1    
    60   29   30 am   BACKBONE|DICT|INTERRES
    61   29   99 1    
    62   30   31 2    
    63   30   32 1    
    64   32   33 1    
    65   32   34 1    
    66   32  100 1    
    67   33  101 1    
    68   33  102 1    
    69   33  103 1    
    70   34   35 am   BACKBONE|DICT|INTERRES
    71   34  104 1    
    72   35   36 2    
    73   37   38 2    
    74   37   39 am   BACKBONE|DICT|INTERRES
    75   39   40 1    
    76   39  105 1    
    77   40   41 1    
    78   40   42 1    
    79   40  106 1    
    80   41  107 1    
    81   41  108 1    
    82   41  109 1    
    83   42   43 2    
    84   42   44 am   BACKBONE|DICT|INTERRES
    85   44   45 1    
    86   44  110 1    
    87   45   46 1    
    88   45   47 1    
    89   45  111 1    
    90   46  112 1    
    91   46  113 1    
    92   46  114 1    
    93   47   48 2    
    94   47   49 am   BACKBONE|DICT|INTERRES
    95   49   50 1    
    96   49  115 1    
    97   50   51 1    
    98   50   52 1    
    99   50  116 1    
   100   51  117 1    
   101   51  118 1    
   102   51  119 1    
   103   52   53 2    
   104   52   54 am   BACKBONE|DICT|INTERRES
   105   54   55 1    
   106   54  120 1    
   107   55   56 1    
   108   55   57 1    
   109   55  121 1    
   110   56  122 1    
   111   56  123 1    
   112   56  124 1    
   113   57   58 2    
   114   57   59 am   BACKBONE|DICT|INTERRES
   115   59   60 1    
   116   59  125 1    
   117   60   61 1    
   118   60   62 1    
   119   60  126 1    
   120   61  127 1    
   121   61  128 1    
   122   61  129 1    
   123   62   63 2    
   124   62   64 am   BACKBONE|DICT|INTERRES
   125   64   65 1    
   126   64  130 1    
   127   65   66 1    
   128   65   69 1    
   129   65  131 1    
   130   66   67 am   BACKBONE|DICT|INTERRES
   131   66   68 2    
   132   67  132 1    
   133   67  133 1    
   134   69   70 1    
   135   69  134 1    
   136   69  135 1    
   137   70   71 1    
   138   71  136 1    
   139   71  137 1    
@<TRIPOS>SUBSTRUCTURE
     1 UNK         1 GROUP             0       ****    0 ROOT    
