@<TRIPOS>MOLECULE
3R137
137   139    1
SMALL
USER_CHARGES


@<TRIPOS>ATOM
      1 CA         31.9788   -4.9959   -4.3788 C.3       0 UNK        -0.2020 
      2 C          30.4926   -5.3157   -4.3812 C.2       0 UNK         0.4855 
      3 O          29.8817   -5.3821   -5.4461 O.2       0 UNK        -0.5197 
      4 N          29.9106   -5.5205   -3.1936 N.am      1 UNK        -0.4892 
      5 CA         28.5004   -5.8625   -2.9688 C.3       1 UNK         0.0835 
      6 C6         28.1961   -6.2489   -1.4889 C.3       12 UNK        -0.0855 
      7 S7         29.3076   -5.5414   -0.2121 S.3       12 UNK        -0.2931 
      8 C8         28.4454   -4.0251    0.3404 C.3       12 UNK         0.0378 
      9 C9         28.9238   -2.7161   -0.2978 C.ar      12 UNK        -0.0802 
     10 C10        30.1237   -2.6118   -1.0181 C.ar      12 UNK        -0.0944 
     11 C11        30.5174   -1.3950   -1.5824 C.ar      12 UNK        -0.0787 
     12 C12        29.7143   -0.2658   -1.4129 C.ar      12 UNK        -0.0862 
     13 C13        28.5224   -0.3463   -0.6889 C.ar      12 UNK        -0.0733 
     14 C14        28.1362   -1.5703   -0.1323 C.ar      12 UNK        -0.0832 
     15 C15        27.6515    0.8883   -0.5175 C.3       12 UNK         0.0240 
     16 S16        26.2867    0.8953   -1.7256 S.3       12 UNK        -0.2522 
     17 C17        26.2337    2.6384   -2.2719 C.3       12 UNK        -0.0967 
     18 CA         26.3165    2.8190   -3.8106 C.3       5 UNK         0.0660 
     19 N          27.4515    2.1077   -4.4051 N.am      5 UNK        -0.4015 
     20 C          28.0227    2.4496   -5.5668 C.2       4 UNK         0.4946 
     21 O          27.5621    3.2911   -6.3373 O.2       4 UNK        -0.5353 
     22 CA         29.3540    1.7665   -5.9111 C.3       4 UNK         0.0277 
     23 CB         30.4512    2.1312   -4.8961 C.3       4 UNK        -0.1981 
     24 N          29.2201    0.3140   -6.0019 N.am      4 UNK        -0.4209 
     25 C          28.7090   -0.3241   -7.0622 C.2       3 UNK         0.4942 
     26 O          28.4081    0.2432   -8.1109 O.2       3 UNK        -0.5208 
     27 CA         28.4786   -1.8404   -6.9386 C.3       3 UNK         0.0250 
     28 CB         29.6885   -2.6198   -7.4688 C.3       3 UNK        -0.1990 
     29 N          28.1552   -2.2808   -5.5802 N.am      3 UNK        -0.4232 
     30 C          27.0963   -1.8507   -4.8794 C.2       2 UNK         0.4993 
     31 O          26.2807   -1.0374   -5.3197 O.2       2 UNK        -0.5286 
     32 CA         26.9649   -2.3416   -3.4305 C.3       2 UNK         0.0209 
     33 CB         25.4981   -2.4834   -2.9712 C.3       2 UNK        -0.1931 
     34 N          27.7591   -3.5356   -3.1157 N.am      2 UNK        -0.4546 
     35 C          27.5210   -4.7963   -3.4979 C.2       1 UNK         0.5154 
     36 O          26.5920   -5.1362   -4.2317 O.2       1 UNK        -0.5181 
     37 C          24.9641    2.5484   -4.5006 C.2       5 UNK         0.5014 
     38 O          24.1491    3.4715   -4.5626 O.2       5 UNK        -0.5248 
     39 N          24.7278    1.3214   -4.9873 N.am      6 UNK        -0.4434 
     40 CA         23.4588    0.9318   -5.6051 C.3       6 UNK         0.0363 
     41 CB         23.0058   -0.4391   -5.0726 C.3       6 UNK        -0.1936 
     42 C          23.5583    0.9217   -7.1341 C.2       6 UNK         0.5081 
     43 O          22.7243    1.5454   -7.7913 O.2       6 UNK        -0.5248 
     44 N          24.5482    0.2012   -7.6818 N.am      7 UNK        -0.4718 
     45 CA         24.6512   -0.0291   -9.1297 C.3       7 UNK         0.0273 
     46 CB         25.4386   -1.3206   -9.4007 C.3       7 UNK        -0.1935 
     47 C          25.2723    1.1426   -9.9088 C.2       7 UNK         0.5018 
     48 O          25.0184    1.2525  -11.1089 O.2       7 UNK        -0.5186 
     49 N          26.0907    1.9654   -9.2337 N.am      8 UNK        -0.4240 
     50 CA         26.9024    3.0597   -9.7903 C.3       8 UNK         0.0235 
     51 CB         26.0080    4.1973  -10.3277 C.3       8 UNK        -0.2000 
     52 C          27.9553    2.5833  -10.8165 C.2       8 UNK         0.4941 
     53 O          28.3216    3.3363  -11.7207 O.2       8 UNK        -0.5273 
     54 N          28.4306    1.3438  -10.6463 N.am      9 UNK        -0.4262 
     55 CA         29.4643    0.6959  -11.4548 C.3       9 UNK         0.0264 
     56 CB         29.0850   -0.7841  -11.6322 C.3       9 UNK        -0.1955 
     57 C          30.8619    0.8126  -10.8188 C.2       9 UNK         0.5031 
     58 O          31.8495    0.6433  -11.5352 O.2       9 UNK        -0.5390 
     59 N          30.9054    1.1010   -9.5077 N.am      10 UNK        -0.4204 
     60 CA         32.0596    1.1715   -8.6006 C.3       10 UNK         0.0237 
     61 CB         33.2222    2.0107   -9.1686 C.3       10 UNK        -0.1985 
     62 C          32.5285   -0.2203   -8.1463 C.2       10 UNK         0.4970 
     63 O          32.5226   -1.1706   -8.9300 O.2       10 UNK        -0.4914 
     64 N          32.9359   -0.3051   -6.8740 N.am      11 UNK        -0.4285 
     65 CA         33.4585   -1.5265   -6.2388 C.3       11 UNK         0.1007 
     66 C          34.9211   -1.8843   -6.6371 C.2       11 UNK         0.5703 
     67 N          35.6601   -1.0196   -7.3228 N.am      11 UNK        -0.7361 
     68 O          35.3912   -2.9753   -6.3240 O.2       11 UNK        -0.4986 
     69 C69        33.2986   -1.4784   -4.6954 C.3       12 UNK        -0.0947 
     70 S70        31.5609   -1.4001   -4.1459 S.3       12 UNK        -0.2240 
     71 C71        31.8257   -1.2927   -2.3508 C.3       12 UNK         0.0194 
     72 H72        32.2936   -4.5506   -3.4352 H         1 UNK         0.0906 
     73 H73        32.5589   -5.9032   -4.5441 H         1 UNK         0.0906 
     74 H74        32.2138   -4.2944   -5.1779 H         1 UNK         0.0906 
     75 H75        30.4640   -5.4722   -2.3488 H         1 UNK         0.3140 
     76 H76        28.3081   -6.7507   -3.5757 H         1 UNK         0.1085 
     77 H77        28.3004   -7.3313   -1.3975 H         1 UNK         0.0836 
     78 H78        27.1554   -6.0568   -1.2184 H         1 UNK         0.0836 
     79 H79        28.5839   -3.9390    1.4189 H         1 UNK         0.0731 
     80 H80        27.3725   -4.1423    0.1809 H         1 UNK         0.0731 
     81 H81        30.7693   -3.4690   -1.1389 H         1 UNK         0.1312 
     82 H82        30.0239    0.6784   -1.8376 H         1 UNK         0.1406 
     83 H83        27.2105   -1.6301    0.4248 H         1 UNK         0.1631 
     84 H84        28.2659    1.7838   -0.6147 H         1 UNK         0.0717 
     85 H85        27.2348    0.9158    0.4904 H         1 UNK         0.0717 
     86 H86        25.3261    3.0977   -1.8743 H         1 UNK         0.0934 
     87 H87        27.0512    3.1936   -1.8115 H         1 UNK         0.0934 
     88 H88        26.5061    3.8831   -3.9730 H         1 UNK         0.0739 
     89 H89        27.8618    1.3811   -3.8394 H         1 UNK         0.3093 
     90 H90        29.6589    2.1567   -6.8829 H         1 UNK         0.0818 
     91 H91        30.5652    3.2133   -4.8175 H         1 UNK         0.0819 
     92 H92        30.2307    1.7547   -3.8982 H         1 UNK         0.0819 
     93 H93        31.4184    1.7275   -5.1918 H         1 UNK         0.0819 
     94 H94        29.4840   -0.2323   -5.1940 H         1 UNK         0.3041 
     95 H95        27.6217   -2.0933   -7.5614 H         1 UNK         0.0784 
     96 H96        29.9700   -2.2813   -8.4669 H         1 UNK         0.0793 
     97 H97        30.5574   -2.5000   -6.8239 H         1 UNK         0.0793 
     98 H98        29.4708   -3.6852   -7.5413 H         1 UNK         0.0793 
     99 H99        28.7662   -2.9680   -5.1612 H         1 UNK         0.3024 
    100 H100       27.4059   -1.5426   -2.8409 H         1 UNK         0.1171 
    101 H101       25.4379   -2.8113   -1.9336 H         1 UNK         0.0786 
    102 H102       24.9764   -1.5284   -3.0349 H         1 UNK         0.0786 
    103 H103       24.9432   -3.1927   -3.5853 H         1 UNK         0.0786 
    104 H104       28.5548   -3.3770   -2.5099 H         1 UNK         0.2977 
    105 H105       25.4451    0.6010   -4.9372 H         1 UNK         0.3127 
    106 H106       22.6755    1.6440   -5.3363 H         1 UNK         0.0770 
    107 H107       23.7013   -1.2368   -5.3320 H         1 UNK         0.0814 
    108 H108       22.0347   -0.7126   -5.4870 H         1 UNK         0.0814 
    109 H109       22.9012   -0.4253   -3.9878 H         1 UNK         0.0814 
    110 H110       25.1957   -0.2880   -7.0735 H         1 UNK         0.2983 
    111 H111       23.6417   -0.1770   -9.5213 H         1 UNK         0.0947 
    112 H112       25.3089   -1.6361  -10.4368 H         1 UNK         0.0806 
    113 H113       25.1045   -2.1425   -8.7672 H         1 UNK         0.0806 
    114 H114       26.5067   -1.1802   -9.2495 H         1 UNK         0.0806 
    115 H115       26.2466    1.7647   -8.2548 H         1 UNK         0.3000 
    116 H116       27.4740    3.4651   -8.9552 H         1 UNK         0.0850 
    117 H117       26.6047    5.0695  -10.5975 H         1 UNK         0.0810 
    118 H118       25.2857    4.5203   -9.5780 H         1 UNK         0.0810 
    119 H119       25.4565    3.8945  -11.2181 H         1 UNK         0.0810 
    120 H120       28.1190    0.8307   -9.8239 H         1 UNK         0.3040 
    121 H121       29.5065    1.1617  -12.4417 H         1 UNK         0.0766 
    122 H122       28.1176   -0.8883  -12.1239 H         1 UNK         0.0812 
    123 H123       29.0319   -1.3046  -10.6750 H         1 UNK         0.0812 
    124 H124       29.8200   -1.3051  -12.2473 H         1 UNK         0.0812 
    125 H125       30.0049    1.1325   -9.0431 H         1 UNK         0.3205 
    126 H126       31.6984    1.6982   -7.7190 H         1 UNK         0.0754 
    127 H127       33.7348    1.5015   -9.9853 H         1 UNK         0.0769 
    128 H128       33.9688    2.2107   -8.3994 H         1 UNK         0.0769 
    129 H129       32.8733    2.9748   -9.5389 H         1 UNK         0.0769 
    130 H130       32.9370    0.5206   -6.2952 H         1 UNK         0.2981 
    131 H131       32.8602   -2.3643   -6.5990 H         1 UNK         0.0541 
    132 H132       35.2872   -0.1242   -7.5913 H         1 UNK         0.3459 
    133 H133       36.6028   -1.2708   -7.5760 H         1 UNK         0.3459 
    134 H134       33.7415   -2.3646   -4.2368 H         1 UNK         0.0612 
    135 H135       33.8361   -0.6216   -4.2852 H         1 UNK         0.0612 
    136 H136       32.3215   -0.3495   -2.1166 H         1 UNK         0.0624 
    137 H137       32.5074   -2.0853   -2.0383 H         1 UNK         0.0624 
@<TRIPOS>BOND
     1    1    2 1    
     2    1   72 1    
     3    1   73 1    
     4    1   74 1    
     5    2    3 2    
     6    2    4 am   BACKBONE|DICT|INTERRES
     7    4    5 1    
     8    4   75 1    
     9    5    6 1    
    10    5   35 1    
    11    5   76 1    
    12    6    7 1    
    13    6   77 1    
    14    6   78 1    
    15    7    8 1    
    16    8    9 1    
    17    8   79 1    
    18    8   80 1    
    19    9   10 ar   
    20    9   14 ar   
    21   10   11 ar   
    22   10   81 1    
    23   11   12 ar   
    24   11   71 1    
    25   12   13 ar   
    26   12   82 1    
    27   13   14 ar   
    28   13   15 1    
    29   14   83 1    
    30   15   16 1    
    31   15   84 1    
    32   15   85 1    
    33   16   17 1    
    34   17   18 1    
    35   17   86 1    
    36   17   87 1    
    37   18   19 1    
    38   18   37 1    
    39   18   88 1    
    40   19   20 am   BACKBONE|DICT|INTERRES
    41   19   89 1    
    42   20   21 2    
    43   20   22 1    
    44   22   23 1    
    45   22   24 1    
    46   22   90 1    
    47   23   91 1    
    48   23   92 1    
    49   23   93 1    
    50   24   25 am   BACKBONE|DICT|INTERRES
    51   24   94 1    
    52   25   26 2    
    53   25   27 1    
    54   27   28 1    
    55   27   29 1    
    56   27   95 1    
    57   28   96 1    
    58   28   97 1    
    59   28   98 1    
    60   29   30 am   BACKBONE|DICT|INTERRES
    61   29   99 1    
    62   30   31 2    
    63   30   32 1    
    64   32   33 1    
    65   32   34 1    
    66   32  100 1    
    67   33  101 1    
    68   33  102 1    
    69   33  103 1    
    70   34   35 am   BACKBONE|DICT|INTERRES
    71   34  104 1    
    72   35   36 2    
    73   37   38 2    
    74   37   39 am   BACKBONE|DICT|INTERRES
    75   39   40 1    
    76   39  105 1    
    77   40   41 1    
    78   40   42 1    
    79   40  106 1    
    80   41  107 1    
    81   41  108 1    
    82   41  109 1    
    83   42   43 2    
    84   42   44 am   BACKBONE|DICT|INTERRES
    85   44   45 1    
    86   44  110 1    
    87   45   46 1    
    88   45   47 1    
    89   45  111 1    
    90   46  112 1    
    91   46  113 1    
    92   46  114 1    
    93   47   48 2    
    94   47   49 am   BACKBONE|DICT|INTERRES
    95   49   50 1    
    96   49  115 1    
    97   50   51 1    
    98   50   52 1    
    99   50  116 1    
   100   51  117 1    
   101   51  118 1    
   102   51  119 1    
   103   52   53 2    
   104   52   54 am   BACKBONE|DICT|INTERRES
   105   54   55 1    
   106   54  120 1    
   107   55   56 1    
   108   55   57 1    
   109   55  121 1    
   110   56  122 1    
   111   56  123 1    
   112   56  124 1    
   113   57   58 2    
   114   57   59 am   BACKBONE|DICT|INTERRES
   115   59   60 1    
   116   59  125 1    
   117   60   61 1    
   118   60   62 1    
   119   60  126 1    
   120   61  127 1    
   121   61  128 1    
   122   61  129 1    
   123   62   63 2    
   124   62   64 am   BACKBONE|DICT|INTERRES
   125   64   65 1    
   126   64  130 1    
   127   65   66 1    
   128   65   69 1    
   129   65  131 1    
   130   66   67 am   BACKBONE|DICT|INTERRES
   131   66   68 2    
   132   67  132 1    
   133   67  133 1    
   134   69   70 1    
   135   69  134 1    
   136   69  135 1    
   137   70   71 1    
   138   71  136 1    
   139   71  137 1    
@<TRIPOS>SUBSTRUCTURE
     1 UNK         1 GROUP             0       ****    0 ROOT    
