@<TRIPOS>MOLECULE
3R137
137   139    1
SMALL
USER_CHARGES


@<TRIPOS>ATOM
      1 CA         29.2734   -6.0004   -4.6763 C.3       0 UNK        -0.2020 
      2 C          28.1244   -5.6488   -3.7432 C.2       0 UNK         0.4855 
      3 O          27.0053   -6.1221   -3.9436 O.2       0 UNK        -0.5197 
      4 N          28.3943   -4.8310   -2.7192 N.am      1 UNK        -0.4892 
      5 CA         27.4159   -4.3852   -1.7209 C.3       1 UNK         0.0835 
      6 C6         28.0846   -3.8000   -0.4421 C.3       12 UNK        -0.0855 
      7 S7         29.5733   -4.7084    0.1157 S.3       12 UNK        -0.2931 
      8 C8         30.8187   -3.3806    0.2998 C.3       12 UNK         0.0378 
      9 C9         30.9307   -2.4761   -0.9242 C.ar      12 UNK        -0.0802 
     10 C10        31.3358   -2.9948   -2.1582 C.ar      12 UNK        -0.0944 
     11 C11        31.4013   -2.1726   -3.2882 C.ar      12 UNK        -0.0787 
     12 C12        31.0666   -0.8198   -3.1725 C.ar      12 UNK        -0.0862 
     13 C13        30.6956   -0.2796   -1.9374 C.ar      12 UNK        -0.0733 
     14 C14        30.6279   -1.1136   -0.8177 C.ar      12 UNK        -0.0832 
     15 C15        30.3958    1.2108   -1.8134 C.3       12 UNK         0.0240 
     16 S16        28.6682    1.5820   -1.3485 S.3       12 UNK        -0.2522 
     17 C17        27.6869    0.5141   -2.4533 C.3       12 UNK        -0.0967 
     18 CA         27.8798    0.7978   -3.9638 C.3       5 UNK         0.0660 
     19 N          27.5681   -0.3847   -4.7602 N.am      5 UNK        -0.4015 
     20 C          27.9801   -0.6061   -6.0129 C.2       4 UNK         0.4946 
     21 O          28.7914    0.1039   -6.6008 O.2       4 UNK        -0.5353 
     22 CA         27.4003   -1.8333   -6.7335 C.3       4 UNK         0.0277 
     23 CB         28.3939   -3.0026   -6.6839 C.3       4 UNK        -0.1981 
     24 N          26.1079   -2.2621   -6.1902 N.am      4 UNK        -0.4209 
     25 C          24.9507   -1.6233   -6.4120 C.2       3 UNK         0.4942 
     26 O          24.8502   -0.6016   -7.0909 O.2       3 UNK        -0.5208 
     27 CA         23.6986   -2.2047   -5.7341 C.3       3 UNK         0.0250 
     28 CB         23.2215   -3.4732   -6.4598 C.3       3 UNK        -0.1990 
     29 N          23.8943   -2.4919   -4.3103 N.am      3 UNK        -0.4232 
     30 C          24.1485   -1.5589   -3.3828 C.2       2 UNK         0.4993 
     31 O          24.2667   -0.3591   -3.6301 O.2       2 UNK        -0.5286 
     32 CA         24.3528   -2.0453   -1.9377 C.3       2 UNK         0.0209 
     33 CB         23.0003   -2.3682   -1.2814 C.3       2 UNK        -0.1931 
     34 N          25.2722   -3.1799   -1.7547 N.am      2 UNK        -0.4546 
     35 C          26.4744   -3.3285   -2.3309 C.2       1 UNK         0.5154 
     36 O          26.8829   -2.6264   -3.2572 O.2       1 UNK        -0.5181 
     37 C          27.0758    2.0194   -4.4499 C.2       5 UNK         0.5014 
     38 O          27.6489    3.1016   -4.5827 O.2       5 UNK        -0.5248 
     39 N          25.7768    1.8257   -4.7334 N.am      6 UNK        -0.4434 
     40 CA         24.8920    2.8359   -5.3189 C.3       6 UNK         0.0363 
     41 CB         23.4352    2.3463   -5.2796 C.3       6 UNK        -0.1936 
     42 C          25.3128    3.2071   -6.7490 C.2       6 UNK         0.5081 
     43 O          25.5434    4.3837   -7.0307 O.2       6 UNK        -0.5248 
     44 N          25.4654    2.1981   -7.6164 N.am      7 UNK        -0.4718 
     45 CA         26.0176    2.3389   -8.9650 C.3       7 UNK         0.0273 
     46 CB         25.3896    1.2693   -9.8783 C.3       7 UNK        -0.1935 
     47 C          27.5519    2.2406   -8.9069 C.2       7 UNK         0.5018 
     48 O          28.1231    1.3218   -9.4940 O.2       7 UNK        -0.5186 
     49 N          28.1733    3.1819   -8.1773 N.am      8 UNK        -0.4240 
     50 CA         29.5683    3.2010   -7.7067 C.3       8 UNK         0.0235 
     51 CB         29.8903    4.5991   -7.1551 C.3       8 UNK        -0.2000 
     52 C          30.6510    2.7648   -8.7095 C.2       8 UNK         0.4941 
     53 O          31.6252    2.1280   -8.3054 O.2       8 UNK        -0.5273 
     54 N          30.4538    3.0843   -9.9965 N.am      9 UNK        -0.4262 
     55 CA         31.3111    2.6714  -11.1109 C.3       9 UNK         0.0264 
     56 CB         30.8011    3.3182  -12.4085 C.3       9 UNK        -0.1955 
     57 C          31.4313    1.1444  -11.2833 C.2       9 UNK         0.5031 
     58 O          32.4651    0.6821  -11.7683 O.2       9 UNK        -0.5390 
     59 N          30.4106    0.3822  -10.8599 N.am      10 UNK        -0.4204 
     60 CA         30.4033   -1.0839  -10.8799 C.3       10 UNK         0.0237 
     61 CB         28.9921   -1.5965  -10.5552 C.3       10 UNK        -0.1985 
     62 C          31.4337   -1.7162   -9.9276 C.2       10 UNK         0.4970 
     63 O          31.8653   -2.8404  -10.1862 O.2       10 UNK        -0.4914 
     64 N          31.8249   -0.9914   -8.8697 N.am      11 UNK        -0.4285 
     65 CA         32.9269   -1.3670   -7.9731 C.3       11 UNK         0.1007 
     66 C          34.3408   -1.0146   -8.5331 C.2       11 UNK         0.5703 
     67 N          34.4703   -0.3718   -9.6896 N.am      11 UNK        -0.7361 
     68 O          35.3503   -1.3489   -7.9183 O.2       11 UNK        -0.4986 
     69 C69        32.6931   -0.8233   -6.5350 C.3       12 UNK        -0.0947 
     70 S70        33.3485   -1.9573   -5.2596 S.3       12 UNK        -0.2240 
     71 C71        31.8327   -2.7483   -4.6306 C.3       12 UNK         0.0194 
     72 H72        29.5382   -7.0512   -4.5624 H         1 UNK         0.0906 
     73 H73        28.9835   -5.8352   -5.7134 H         1 UNK         0.0906 
     74 H74        30.1605   -5.4025   -4.4722 H         1 UNK         0.0906 
     75 H75        29.3199   -4.4454   -2.6035 H         1 UNK         0.3140 
     76 H76        26.8193   -5.2535   -1.4322 H         1 UNK         0.1085 
     77 H77        28.3415   -2.7498   -0.5859 H         1 UNK         0.0836 
     78 H78        27.3675   -3.8039    0.3807 H         1 UNK         0.0836 
     79 H79        31.7909   -3.8346    0.4962 H         1 UNK         0.0731 
     80 H80        30.5714   -2.7970    1.1880 H         1 UNK         0.0731 
     81 H81        31.5922   -4.0428   -2.2350 H         1 UNK         0.1312 
     82 H82        31.1188   -0.1832   -4.0446 H         1 UNK         0.1406 
     83 H83        30.3298   -0.6973    0.1353 H         1 UNK         0.1631 
     84 H84        30.6323    1.7326   -2.7417 H         1 UNK         0.0717 
     85 H85        31.0557    1.6399   -1.0582 H         1 UNK         0.0717 
     86 H86        27.9770   -0.5117   -2.2243 H         1 UNK         0.0934 
     87 H87        26.6348    0.5828   -2.1703 H         1 UNK         0.0934 
     88 H88        28.9310    1.0210   -4.1467 H         1 UNK         0.0739 
     89 H89        27.0171   -1.1081   -4.3040 H         1 UNK         0.3093 
     90 H90        27.2478   -1.5538   -7.7775 H         1 UNK         0.0818 
     91 H91        28.0091   -3.8765   -7.2095 H         1 UNK         0.0819 
     92 H92        29.3377   -2.7288   -7.1580 H         1 UNK         0.0819 
     93 H93        28.6130   -3.2907   -5.6556 H         1 UNK         0.0819 
     94 H94        26.1164   -3.0467   -5.5529 H         1 UNK         0.3041 
     95 H95        22.9085   -1.4545   -5.8129 H         1 UNK         0.0784 
     96 H96        23.0625   -3.2781   -7.5214 H         1 UNK         0.0793 
     97 H97        23.9467   -4.2843   -6.3823 H         1 UNK         0.0793 
     98 H98        22.2749   -3.8297   -6.0531 H         1 UNK         0.0793 
     99 H99        23.8423   -3.4576   -4.0197 H         1 UNK         0.3024 
    100 H100       24.7915   -1.2062   -1.3934 H         1 UNK         0.1171 
    101 H101       23.1102   -2.5485   -0.2118 H         1 UNK         0.0786 
    102 H102       22.3010   -1.5384   -1.3956 H         1 UNK         0.0786 
    103 H103       22.5354   -3.2498   -1.7243 H         1 UNK         0.0786 
    104 H104       25.0249   -3.8202   -1.0135 H         1 UNK         0.2977 
    105 H105       25.3546    0.9221   -4.5311 H         1 UNK         0.3127 
    106 H106       24.9623    3.7374   -4.7065 H         1 UNK         0.0770 
    107 H107       23.3049    1.4132   -5.8291 H         1 UNK         0.0814 
    108 H108       22.7625    3.0833   -5.7201 H         1 UNK         0.0814 
    109 H109       23.1040    2.1762   -4.2550 H         1 UNK         0.0814 
    110 H110       25.2766    1.2458   -7.3084 H         1 UNK         0.2983 
    111 H111       25.7610    3.3190   -9.3733 H         1 UNK         0.0947 
    112 H112       25.7499    1.3711  -10.9027 H         1 UNK         0.0806 
    113 H113       24.3036    1.3575   -9.9046 H         1 UNK         0.0806 
    114 H114       25.6350    0.2596   -9.5463 H         1 UNK         0.0806 
    115 H115       27.5669    3.8689   -7.7451 H         1 UNK         0.3000 
    116 H116       29.6191    2.5023   -6.8710 H         1 UNK         0.0850 
    117 H117       30.9113    4.6446   -6.7732 H         1 UNK         0.0810 
    118 H118       29.2276    4.8602   -6.3294 H         1 UNK         0.0810 
    119 H119       29.7925    5.3681   -7.9223 H         1 UNK         0.0810 
    120 H120       29.6134    3.5917  -10.2320 H         1 UNK         0.3040 
    121 H121       32.3140    3.0530  -10.9084 H         1 UNK         0.0766 
    122 H122       30.8021    4.4061  -12.3383 H         1 UNK         0.0812 
    123 H123       29.7868    2.9961  -12.6481 H         1 UNK         0.0812 
    124 H124       31.4364    3.0497  -13.2539 H         1 UNK         0.0812 
    125 H125       29.6014    0.8300  -10.4271 H         1 UNK         0.3205 
    126 H126       30.6565   -1.4023  -11.8932 H         1 UNK         0.0754 
    127 H127       28.9443   -2.6845  -10.6161 H         1 UNK         0.0769 
    128 H128       28.2525   -1.1970  -11.2495 H         1 UNK         0.0769 
    129 H129       28.6924   -1.3116   -9.5473 H         1 UNK         0.0769 
    130 H130       31.4504   -0.0591   -8.7407 H         1 UNK         0.2981 
    131 H131       32.9125   -2.4567   -7.9095 H         1 UNK         0.0541 
    132 H132       33.6642   -0.0982  -10.2377 H         1 UNK         0.3459 
    133 H133       35.3958   -0.1652  -10.0295 H         1 UNK         0.3459 
    134 H134       31.6279   -0.6732   -6.3517 H         1 UNK         0.0612 
    135 H135       33.1465    0.1612   -6.4058 H         1 UNK         0.0612 
    136 H136       32.0310   -3.8168   -4.5397 H         1 UNK         0.0624 
    137 H137       31.0208   -2.6513   -5.3506 H         1 UNK         0.0624 
@<TRIPOS>BOND
     1    1    2 1    
     2    1   72 1    
     3    1   73 1    
     4    1   74 1    
     5    2    3 2    
     6    2    4 am   BACKBONE|DICT|INTERRES
     7    4    5 1    
     8    4   75 1    
     9    5    6 1    
    10    5   35 1    
    11    5   76 1    
    12    6    7 1    
    13    6   77 1    
    14    6   78 1    
    15    7    8 1    
    16    8    9 1    
    17    8   79 1    
    18    8   80 1    
    19    9   10 ar   
    20    9   14 ar   
    21   10   11 ar   
    22   10   81 1    
    23   11   12 ar   
    24   11   71 1    
    25   12   13 ar   
    26   12   82 1    
    27   13   14 ar   
    28   13   15 1    
    29   14   83 1    
    30   15   16 1    
    31   15   84 1    
    32   15   85 1    
    33   16   17 1    
    34   17   18 1    
    35   17   86 1    
    36   17   87 1    
    37   18   19 1    
    38   18   37 1    
    39   18   88 1    
    40   19   20 am   BACKBONE|DICT|INTERRES
    41   19   89 1    
    42   20   21 2    
    43   20   22 1    
    44   22   23 1    
    45   22   24 1    
    46   22   90 1    
    47   23   91 1    
    48   23   92 1    
    49   23   93 1    
    50   24   25 am   BACKBONE|DICT|INTERRES
    51   24   94 1    
    52   25   26 2    
    53   25   27 1    
    54   27   28 1    
    55   27   29 1    
    56   27   95 1    
    57   28   96 1    
    58   28   97 1    
    59   28   98 1    
    60   29   30 am   BACKBONE|DICT|INTERRES
    61   29   99 1    
    62   30   31 2    
    63   30   32 1    
    64   32   33 1    
    65   32   34 1    
    66   32  100 1    
    67   33  101 1    
    68   33  102 1    
    69   33  103 1    
    70   34   35 am   BACKBONE|DICT|INTERRES
    71   34  104 1    
    72   35   36 2    
    73   37   38 2    
    74   37   39 am   BACKBONE|DICT|INTERRES
    75   39   40 1    
    76   39  105 1    
    77   40   41 1    
    78   40   42 1    
    79   40  106 1    
    80   41  107 1    
    81   41  108 1    
    82   41  109 1    
    83   42   43 2    
    84   42   44 am   BACKBONE|DICT|INTERRES
    85   44   45 1    
    86   44  110 1    
    87   45   46 1    
    88   45   47 1    
    89   45  111 1    
    90   46  112 1    
    91   46  113 1    
    92   46  114 1    
    93   47   48 2    
    94   47   49 am   BACKBONE|DICT|INTERRES
    95   49   50 1    
    96   49  115 1    
    97   50   51 1    
    98   50   52 1    
    99   50  116 1    
   100   51  117 1    
   101   51  118 1    
   102   51  119 1    
   103   52   53 2    
   104   52   54 am   BACKBONE|DICT|INTERRES
   105   54   55 1    
   106   54  120 1    
   107   55   56 1    
   108   55   57 1    
   109   55  121 1    
   110   56  122 1    
   111   56  123 1    
   112   56  124 1    
   113   57   58 2    
   114   57   59 am   BACKBONE|DICT|INTERRES
   115   59   60 1    
   116   59  125 1    
   117   60   61 1    
   118   60   62 1    
   119   60  126 1    
   120   61  127 1    
   121   61  128 1    
   122   61  129 1    
   123   62   63 2    
   124   62   64 am   BACKBONE|DICT|INTERRES
   125   64   65 1    
   126   64  130 1    
   127   65   66 1    
   128   65   69 1    
   129   65  131 1    
   130   66   67 am   BACKBONE|DICT|INTERRES
   131   66   68 2    
   132   67  132 1    
   133   67  133 1    
   134   69   70 1    
   135   69  134 1    
   136   69  135 1    
   137   70   71 1    
   138   71  136 1    
   139   71  137 1    
@<TRIPOS>SUBSTRUCTURE
     1 UNK         1 GROUP             0       ****    0 ROOT    
