@<TRIPOS>MOLECULE
3R137
137   139    1
SMALL
USER_CHARGES


@<TRIPOS>ATOM
      1 CA         26.9946   -6.3847   -5.5764 C.3       0 UNK        -0.2020 
      2 C          26.9476   -5.6167   -4.2649 C.2       0 UNK         0.4855 
      3 O          25.8664   -5.4125   -3.7118 O.2       0 UNK        -0.5197 
      4 N          28.1114   -5.1858   -3.7634 N.am      1 UNK        -0.4892 
      5 CA         28.2565   -4.4191   -2.5243 C.3       1 UNK         0.0835 
      6 C6         29.7435   -4.3436   -2.1069 C.3       12 UNK        -0.0855 
      7 S7         29.9655   -3.7751   -0.3893 S.3       12 UNK        -0.2931 
      8 C8         31.7043   -3.2310   -0.4223 C.3       12 UNK         0.0378 
      9 C9         31.9438   -2.0418   -1.3469 C.ar      12 UNK        -0.0802 
     10 C10        32.8889   -2.1309   -2.3747 C.ar      12 UNK        -0.0944 
     11 C11        33.1601   -1.0259   -3.1871 C.ar      12 UNK        -0.0787 
     12 C12        32.4700    0.1700   -2.9739 C.ar      12 UNK        -0.0862 
     13 C13        31.5052    0.2672   -1.9665 C.ar      12 UNK        -0.0733 
     14 C14        31.2529   -0.8410   -1.1514 C.ar      12 UNK        -0.0832 
     15 C15        30.7593    1.5760   -1.7317 C.3       12 UNK         0.0240 
     16 S16        30.0222    2.2651   -3.2505 S.3       12 UNK        -0.2522 
     17 C17        28.7528    1.0183   -3.6462 C.3       12 UNK        -0.0967 
     18 CA         28.4613    0.9502   -5.1649 C.3       5 UNK         0.0660 
     19 N          27.8591   -0.3236   -5.5612 N.am      5 UNK        -0.4015 
     20 C          27.6248   -0.7071   -6.8232 C.2       4 UNK         0.4946 
     21 O          28.0417   -0.0928   -7.8037 O.2       4 UNK        -0.5353 
     22 CA         26.7690   -1.9677   -7.0330 C.3       4 UNK         0.0277 
     23 CB         27.6362   -3.2228   -7.1585 C.3       4 UNK        -0.1981 
     24 N          25.7924   -2.1615   -5.9621 N.am      4 UNK        -0.4209 
     25 C          24.6600   -1.4572   -5.8427 C.2       3 UNK         0.4942 
     26 O          24.2961   -0.6044   -6.6516 O.2       3 UNK        -0.5208 
     27 CA         23.8159   -1.7251   -4.5858 C.3       3 UNK         0.0250 
     28 CB         22.9475   -2.9795   -4.7720 C.3       3 UNK        -0.1990 
     29 N          24.6346   -1.8684   -3.3782 N.am      3 UNK        -0.4232 
     30 C          25.3654   -0.8798   -2.8430 C.2       2 UNK         0.4993 
     31 O          25.4012    0.2649   -3.2948 O.2       2 UNK        -0.5286 
     32 CA         26.2466   -1.2358   -1.6324 C.3       2 UNK         0.0209 
     33 CB         25.4479   -1.0969   -0.3271 C.3       2 UNK        -0.1931 
     34 N          26.8585   -2.5693   -1.6933 N.am      2 UNK        -0.4546 
     35 C          27.6422   -3.0150   -2.6859 C.2       1 UNK         0.5154 
     36 O          27.8901   -2.3647   -3.7024 O.2       1 UNK        -0.5181 
     37 C          27.6019    2.1381   -5.6452 C.2       5 UNK         0.5014 
     38 O          28.1223    3.0359   -6.3110 O.2       5 UNK        -0.5248 
     39 N          26.2928    2.0839   -5.3506 N.am      6 UNK        -0.4434 
     40 CA         25.2883    3.0468   -5.8097 C.3       6 UNK         0.0363 
     41 CB         23.9291    2.7193   -5.1724 C.3       6 UNK        -0.1936 
     42 C          25.1700    3.1173   -7.3424 C.2       6 UNK         0.5081 
     43 O          25.0045    4.2107   -7.8842 O.2       6 UNK        -0.5248 
     44 N          25.3184    1.9733   -8.0250 N.am      7 UNK        -0.4718 
     45 CA         25.3786    1.8519   -9.4860 C.3       7 UNK         0.0273 
     46 CB         25.0095    0.4122   -9.8865 C.3       7 UNK        -0.1935 
     47 C          26.7402    2.2947  -10.0690 C.2       7 UNK         0.5018 
     48 O          27.3442    1.5586  -10.8510 O.2       7 UNK        -0.5186 
     49 N          27.1800    3.5035   -9.6923 N.am      8 UNK        -0.4240 
     50 CA         28.3830    4.2090  -10.1464 C.3       8 UNK         0.0235 
     51 CB         28.2332    4.6273  -11.6255 C.3       8 UNK        -0.2000 
     52 C          29.6975    3.4528   -9.8650 C.2       8 UNK         0.4941 
     53 O          30.5542    3.3716  -10.7480 O.2       8 UNK        -0.5273 
     54 N          29.8458    2.9491   -8.6295 N.am      9 UNK        -0.4262 
     55 CA         31.0456    2.2994   -8.0846 C.3       9 UNK         0.0264 
     56 CB         32.1902    3.3225   -7.9194 C.3       9 UNK        -0.1955 
     57 C          31.4744    1.0350   -8.8556 C.2       9 UNK         0.5031 
     58 O          32.6604    0.8657   -9.1474 O.2       9 UNK        -0.5390 
     59 N          30.5074    0.1608   -9.1665 N.am      10 UNK        -0.4204 
     60 CA         30.7530   -1.1336   -9.8090 C.3       10 UNK         0.0237 
     61 CB         29.4743   -1.6012  -10.5239 C.3       10 UNK        -0.1985 
     62 C          31.2584   -2.2022   -8.8214 C.2       10 UNK         0.4970 
     63 O          31.9151   -3.1484   -9.2563 O.2       10 UNK        -0.4914 
     64 N          30.9391   -2.0389   -7.5285 N.am      11 UNK        -0.4285 
     65 CA         31.3503   -2.8523   -6.3629 C.3       11 UNK         0.1007 
     66 C          30.8523   -4.3291   -6.3416 C.2       11 UNK         0.5703 
     67 N          30.6439   -4.9805   -7.4763 N.am      11 UNK        -0.7361 
     68 O          30.6107   -4.8819   -5.2717 O.2       11 UNK        -0.4986 
     69 C69        32.8790   -2.7974   -6.0952 C.3       12 UNK        -0.0947 
     70 S70        33.5172   -1.0939   -5.9421 S.3       12 UNK        -0.2240 
     71 C71        34.2286   -1.1000   -4.2678 C.3       12 UNK         0.0194 
     72 H72        26.2042   -6.0428   -6.2437 H         1 UNK         0.0906 
     73 H73        27.9497   -6.2574   -6.0860 H         1 UNK         0.0906 
     74 H74        26.8446   -7.4480   -5.3917 H         1 UNK         0.0906 
     75 H75        28.9691   -5.3062   -4.2964 H         1 UNK         0.3140 
     76 H76        27.7055   -4.9561   -1.7488 H         1 UNK         0.1085 
     77 H77        30.2045   -5.3298   -2.1838 H         1 UNK         0.0836 
     78 H78        30.2994   -3.6997   -2.7916 H         1 UNK         0.0836 
     79 H79        32.3316   -4.0780   -0.7049 H         1 UNK         0.0731 
     80 H80        32.0037   -2.9534    0.5892 H         1 UNK         0.0731 
     81 H81        33.4314   -3.0538   -2.5286 H         1 UNK         0.1312 
     82 H82        32.6841    1.0275   -3.5974 H         1 UNK         0.1406 
     83 H83        30.5235   -0.7720   -0.3555 H         1 UNK         0.1631 
     84 H84        31.4577    2.3057   -1.3202 H         1 UNK         0.0717 
     85 H85        29.9713    1.4492   -0.9877 H         1 UNK         0.0717 
     86 H86        29.1086    0.0470   -3.2996 H         1 UNK         0.0934 
     87 H87        27.8537    1.2361   -3.0688 H         1 UNK         0.0934 
     88 H88        29.4166    0.9944   -5.6853 H         1 UNK         0.0739 
     89 H89        27.6081   -0.9641   -4.8107 H         1 UNK         0.3093 
     90 H90        26.2288   -1.8464   -7.9728 H         1 UNK         0.0818 
     91 H91        27.0332   -4.0895   -7.4254 H         1 UNK         0.0819 
     92 H92        28.3854   -3.1100   -7.9404 H         1 UNK         0.0819 
     93 H93        28.1535   -3.4426   -6.2257 H         1 UNK         0.0819 
     94 H94        26.0433   -2.8031   -5.2226 H         1 UNK         0.3041 
     95 H95        23.1540   -0.8678   -4.4440 H         1 UNK         0.0784 
     96 H96        22.3242   -2.8934   -5.6632 H         1 UNK         0.0793 
     97 H97        23.5534   -3.8801   -4.8825 H         1 UNK         0.0793 
     98 H98        22.2788   -3.1277   -3.9239 H         1 UNK         0.0793 
     99 H99        24.6800   -2.7857   -2.9564 H         1 UNK         0.3024 
    100 H100       27.0626   -0.5117   -1.6052 H         1 UNK         0.1171 
    101 H101       24.9992   -0.1054   -0.2476 H         1 UNK         0.0786 
    102 H102       26.0871   -1.2305    0.5460 H         1 UNK         0.0786 
    103 H103       24.6393   -1.8265   -0.2672 H         1 UNK         0.0786 
    104 H104       26.7127   -3.1656   -0.8910 H         1 UNK         0.2977 
    105 H105       25.9565    1.3301   -4.7539 H         1 UNK         0.3127 
    106 H106       25.5998    4.0332   -5.4600 H         1 UNK         0.0770 
    107 H107       23.5733    1.7311   -5.4651 H         1 UNK         0.0814 
    108 H108       23.1711    3.4427   -5.4754 H         1 UNK         0.0814 
    109 H109       23.9853    2.7440   -4.0840 H         1 UNK         0.0814 
    110 H110       25.4207    1.1137   -7.4989 H         1 UNK         0.2983 
    111 H111       24.6226    2.5139   -9.9139 H         1 UNK         0.0947 
    112 H112       24.9080    0.3231  -10.9687 H         1 UNK         0.0806 
    113 H113       24.0623    0.1023   -9.4446 H         1 UNK         0.0806 
    114 H114       25.7762   -0.2960   -9.5754 H         1 UNK         0.0806 
    115 H115       26.5945    4.0058   -9.0308 H         1 UNK         0.3000 
    116 H116       28.4355    5.1240   -9.5544 H         1 UNK         0.0850 
    117 H117       29.0661    5.2569  -11.9410 H         1 UNK         0.0810 
    118 H118       27.3189    5.1985  -11.7864 H         1 UNK         0.0810 
    119 H119       28.2100    3.7623  -12.2894 H         1 UNK         0.0810 
    120 H120       29.0772    3.0498   -7.9688 H         1 UNK         0.3040 
    121 H121       30.7846    1.9641   -7.0834 H         1 UNK         0.0766 
    122 H122       31.8714    4.1820   -7.3299 H         1 UNK         0.0812 
    123 H123       32.5492    3.6885   -8.8818 H         1 UNK         0.0812 
    124 H124       33.0412    2.8758   -7.4036 H         1 UNK         0.0812 
    125 H125       29.5498    0.3460   -8.8704 H         1 UNK         0.3205 
    126 H126       31.5272   -1.0038  -10.5684 H         1 UNK         0.0754 
    127 H127       29.6308   -2.5592  -11.0214 H         1 UNK         0.0769 
    128 H128       29.1680   -0.8852  -11.2872 H         1 UNK         0.0769 
    129 H129       28.6392   -1.7221   -9.8350 H         1 UNK         0.0769 
    130 H130       30.3762   -1.2335   -7.3025 H         1 UNK         0.2981 
    131 H131       30.8612   -2.3760   -5.5112 H         1 UNK         0.0541 
    132 H132       30.9216   -4.5433   -8.3473 H         1 UNK         0.3459 
    133 H133       30.3219   -5.9340   -7.4596 H         1 UNK         0.3459 
    134 H134       33.1231   -3.3515   -5.1871 H         1 UNK         0.0612 
    135 H135       33.4253   -3.2881   -6.9024 H         1 UNK         0.0612 
    136 H136       34.8911   -0.2389   -4.1702 H         1 UNK         0.0624 
    137 H137       34.8582   -1.9820   -4.1409 H         1 UNK         0.0624 
@<TRIPOS>BOND
     1    1    2 1    
     2    1   72 1    
     3    1   73 1    
     4    1   74 1    
     5    2    3 2    
     6    2    4 am   BACKBONE|DICT|INTERRES
     7    4    5 1    
     8    4   75 1    
     9    5    6 1    
    10    5   35 1    
    11    5   76 1    
    12    6    7 1    
    13    6   77 1    
    14    6   78 1    
    15    7    8 1    
    16    8    9 1    
    17    8   79 1    
    18    8   80 1    
    19    9   10 ar   
    20    9   14 ar   
    21   10   11 ar   
    22   10   81 1    
    23   11   12 ar   
    24   11   71 1    
    25   12   13 ar   
    26   12   82 1    
    27   13   14 ar   
    28   13   15 1    
    29   14   83 1    
    30   15   16 1    
    31   15   84 1    
    32   15   85 1    
    33   16   17 1    
    34   17   18 1    
    35   17   86 1    
    36   17   87 1    
    37   18   19 1    
    38   18   37 1    
    39   18   88 1    
    40   19   20 am   BACKBONE|DICT|INTERRES
    41   19   89 1    
    42   20   21 2    
    43   20   22 1    
    44   22   23 1    
    45   22   24 1    
    46   22   90 1    
    47   23   91 1    
    48   23   92 1    
    49   23   93 1    
    50   24   25 am   BACKBONE|DICT|INTERRES
    51   24   94 1    
    52   25   26 2    
    53   25   27 1    
    54   27   28 1    
    55   27   29 1    
    56   27   95 1    
    57   28   96 1    
    58   28   97 1    
    59   28   98 1    
    60   29   30 am   BACKBONE|DICT|INTERRES
    61   29   99 1    
    62   30   31 2    
    63   30   32 1    
    64   32   33 1    
    65   32   34 1    
    66   32  100 1    
    67   33  101 1    
    68   33  102 1    
    69   33  103 1    
    70   34   35 am   BACKBONE|DICT|INTERRES
    71   34  104 1    
    72   35   36 2    
    73   37   38 2    
    74   37   39 am   BACKBONE|DICT|INTERRES
    75   39   40 1    
    76   39  105 1    
    77   40   41 1    
    78   40   42 1    
    79   40  106 1    
    80   41  107 1    
    81   41  108 1    
    82   41  109 1    
    83   42   43 2    
    84   42   44 am   BACKBONE|DICT|INTERRES
    85   44   45 1    
    86   44  110 1    
    87   45   46 1    
    88   45   47 1    
    89   45  111 1    
    90   46  112 1    
    91   46  113 1    
    92   46  114 1    
    93   47   48 2    
    94   47   49 am   BACKBONE|DICT|INTERRES
    95   49   50 1    
    96   49  115 1    
    97   50   51 1    
    98   50   52 1    
    99   50  116 1    
   100   51  117 1    
   101   51  118 1    
   102   51  119 1    
   103   52   53 2    
   104   52   54 am   BACKBONE|DICT|INTERRES
   105   54   55 1    
   106   54  120 1    
   107   55   56 1    
   108   55   57 1    
   109   55  121 1    
   110   56  122 1    
   111   56  123 1    
   112   56  124 1    
   113   57   58 2    
   114   57   59 am   BACKBONE|DICT|INTERRES
   115   59   60 1    
   116   59  125 1    
   117   60   61 1    
   118   60   62 1    
   119   60  126 1    
   120   61  127 1    
   121   61  128 1    
   122   61  129 1    
   123   62   63 2    
   124   62   64 am   BACKBONE|DICT|INTERRES
   125   64   65 1    
   126   64  130 1    
   127   65   66 1    
   128   65   69 1    
   129   65  131 1    
   130   66   67 am   BACKBONE|DICT|INTERRES
   131   66   68 2    
   132   67  132 1    
   133   67  133 1    
   134   69   70 1    
   135   69  134 1    
   136   69  135 1    
   137   70   71 1    
   138   71  136 1    
   139   71  137 1    
@<TRIPOS>SUBSTRUCTURE
     1 UNK         1 GROUP             0       ****    0 ROOT    
