@<TRIPOS>MOLECULE
3R137
137   139    1
SMALL
USER_CHARGES


@<TRIPOS>ATOM
      1 CA         32.8256   -3.8074   -4.7550 C.3       0 UNK        -0.2020 
      2 C          31.6649   -4.7784   -4.6056 C.2       0 UNK         0.4855 
      3 O          31.6385   -5.8152   -5.2682 O.2       0 UNK        -0.5197 
      4 N          30.7042   -4.4456   -3.7347 N.am      1 UNK        -0.4892 
      5 CA         29.4720   -5.2095   -3.5121 C.3       1 UNK         0.0835 
      6 C6         28.7491   -4.7694   -2.2136 C.3       12 UNK        -0.0855 
      7 S7         29.6276   -5.2175   -0.6745 S.3       12 UNK        -0.2931 
      8 C8         30.9246   -3.9444   -0.4706 C.3       12 UNK         0.0378 
      9 C9         30.4678   -2.5265   -0.7950 C.ar      12 UNK        -0.0802 
     10 C10        31.1058   -1.8062   -1.8089 C.ar      12 UNK        -0.0944 
     11 C11        30.6895   -0.5137   -2.1320 C.ar      12 UNK        -0.0787 
     12 C12        29.6516    0.0778   -1.4079 C.ar      12 UNK        -0.0862 
     13 C13        29.0156   -0.6216   -0.3769 C.ar      12 UNK        -0.0733 
     14 C14        29.4261   -1.9265   -0.0786 C.ar      12 UNK        -0.0832 
     15 C15        27.9115    0.0393    0.4394 C.3       12 UNK         0.0240 
     16 S16        26.3333    0.1432   -0.4675 S.3       12 UNK        -0.2522 
     17 C17        26.5185    1.7073   -1.3944 C.3       12 UNK        -0.0967 
     18 CA         26.4922    1.4905   -2.9278 C.3       5 UNK         0.0660 
     19 N          25.1992    0.9410   -3.3656 N.am      5 UNK        -0.4015 
     20 C          24.9240    0.5110   -4.6019 C.2       4 UNK         0.4946 
     21 O          25.7045    0.6048   -5.5505 O.2       4 UNK        -0.5353 
     22 CA         23.5389   -0.0910   -4.8420 C.3       4 UNK         0.0277 
     23 CB         22.5868    0.9410   -5.4702 C.3       4 UNK        -0.1981 
     24 N          23.7330   -1.2114   -5.7504 N.am      4 UNK        -0.4209 
     25 C          23.0456   -2.3576   -5.7436 C.2       3 UNK         0.4942 
     26 O          22.0277   -2.5450   -5.0757 O.2       3 UNK        -0.5208 
     27 CA         23.6043   -3.5046   -6.6093 C.3       3 UNK         0.0250 
     28 CB         22.9158   -3.5236   -7.9839 C.3       3 UNK        -0.1990 
     29 N          25.0617   -3.4585   -6.7970 N.am      3 UNK        -0.4232 
     30 C          25.9685   -3.5439   -5.8118 C.2       2 UNK         0.4993 
     31 O          25.6747   -3.6796   -4.6210 O.2       2 UNK        -0.5286 
     32 CA         27.4426   -3.4004   -6.2366 C.3       2 UNK         0.0209 
     33 CB         27.7516   -1.9351   -6.5769 C.3       2 UNK        -0.1931 
     34 N          28.3758   -3.8168   -5.1908 N.am      2 UNK        -0.4546 
     35 C          28.5190   -5.0611   -4.7144 C.2       1 UNK         0.5154 
     36 O          27.9506   -6.0510   -5.1790 O.2       1 UNK        -0.5181 
     37 C          26.9050    2.7886   -3.6612 C.2       5 UNK         0.5014 
     38 O          28.0903    3.1226   -3.6675 O.2       5 UNK        -0.5248 
     39 N          25.9327    3.4989   -4.2498 N.am      6 UNK        -0.4434 
     40 CA         26.1349    4.7177   -5.0335 C.3       6 UNK         0.0363 
     41 CB         24.8624    5.5774   -4.9350 C.3       6 UNK        -0.1936 
     42 C          26.4923    4.4544   -6.5105 C.2       6 UNK         0.5081 
     43 O          26.8148    5.4135   -7.2139 O.2       6 UNK        -0.5248 
     44 N          26.4009    3.2007   -6.9814 N.am      7 UNK        -0.4718 
     45 CA         26.6946    2.8241   -8.3680 C.3       7 UNK         0.0273 
     46 CB         26.1639    1.4055   -8.6321 C.3       7 UNK        -0.1935 
     47 C          28.1987    2.8936   -8.6858 C.2       7 UNK         0.5018 
     48 O          29.0266    2.6476   -7.8069 O.2       7 UNK        -0.5186 
     49 N          28.5204    3.1950   -9.9511 N.am      8 UNK        -0.4240 
     50 CA         29.8923    3.1974  -10.4698 C.3       8 UNK         0.0235 
     51 CB         29.9629    4.0877  -11.7213 C.3       8 UNK        -0.2000 
     52 C          30.4086    1.7829  -10.7876 C.2       8 UNK         0.4941 
     53 O          31.6169    1.5523  -10.7188 O.2       8 UNK        -0.5273 
     54 N          29.4959    0.8637  -11.1352 N.am      9 UNK        -0.4262 
     55 CA         29.7872   -0.5475  -11.3944 C.3       9 UNK         0.0264 
     56 CB         28.5248   -1.2317  -11.9431 C.3       9 UNK        -0.1955 
     57 C          30.2677   -1.2549  -10.1186 C.2       9 UNK         0.5031 
     58 O          29.7203   -0.9931   -9.0470 O.2       9 UNK        -0.5390 
     59 N          31.2764   -2.1258  -10.2570 N.am      10 UNK        -0.4204 
     60 CA         31.9670   -2.9018   -9.2135 C.3       10 UNK         0.0237 
     61 CB         31.0078   -3.8651   -8.4853 C.3       10 UNK        -0.1985 
     62 C          32.7715   -2.0517   -8.2107 C.2       10 UNK         0.4970 
     63 O          33.9378   -2.3632   -7.9677 O.2       10 UNK        -0.4914 
     64 N          32.1515   -1.0069   -7.6529 N.am      11 UNK        -0.4285 
     65 CA         32.7696   -0.0477   -6.7268 C.3       11 UNK         0.1007 
     66 C          33.8345    0.8776   -7.3806 C.2       11 UNK         0.5703 
     67 N          33.7657    1.1706   -8.6737 N.am      11 UNK        -0.7361 
     68 O          34.7503    1.3308   -6.6982 O.2       11 UNK        -0.4986 
     69 C69        31.7016    0.7887   -5.9789 C.3       12 UNK        -0.0947 
     70 S70        30.6697   -0.2273   -4.8712 S.3       12 UNK        -0.2240 
     71 C71        31.3685    0.2428   -3.2604 C.3       12 UNK         0.0194 
     72 H72        32.4758   -2.7756   -4.7699 H         1 UNK         0.0906 
     73 H73        33.5298   -3.9268   -3.9321 H         1 UNK         0.0906 
     74 H74        33.3596   -3.9901   -5.6873 H         1 UNK         0.0906 
     75 H75        30.7790   -3.5877   -3.2081 H         1 UNK         0.3140 
     76 H76        29.7300   -6.2676   -3.4266 H         1 UNK         0.1085 
     77 H77        28.5302   -3.7005   -2.2257 H         1 UNK         0.0836 
     78 H78        27.7736   -5.2570   -2.1520 H         1 UNK         0.0836 
     79 H79        31.7810   -4.2252   -1.0855 H         1 UNK         0.0731 
     80 H80        31.2787   -3.9720    0.5607 H         1 UNK         0.0731 
     81 H81        31.9326   -2.2442   -2.3498 H         1 UNK         0.1312 
     82 H82        29.3458    1.0854   -1.6493 H         1 UNK         0.1406 
     83 H83        28.9390   -2.4793    0.7136 H         1 UNK         0.1631 
     84 H84        28.2289    1.0312    0.7639 H         1 UNK         0.0717 
     85 H85        27.7367   -0.5273    1.3552 H         1 UNK         0.0717 
     86 H86        25.7129    2.3793   -1.0921 H         1 UNK         0.0934 
     87 H87        27.4391    2.2047   -1.0855 H         1 UNK         0.0934 
     88 H88        27.2528    0.7478   -3.1803 H         1 UNK         0.0739 
     89 H89        24.5060    0.8238   -2.6404 H         1 UNK         0.3093 
     90 H90        23.1301   -0.4477   -3.8938 H         1 UNK         0.0818 
     91 H91        22.4292    1.7876   -4.8011 H         1 UNK         0.0819 
     92 H92        22.9801    1.3329   -6.4094 H         1 UNK         0.0819 
     93 H93        21.6096    0.5032   -5.6747 H         1 UNK         0.0819 
     94 H94        24.5802   -1.1464   -6.3008 H         1 UNK         0.3041 
     95 H95        23.3700   -4.4395   -6.0958 H         1 UNK         0.0784 
     96 H96        21.8318   -3.5845   -7.8761 H         1 UNK         0.0793 
     97 H97        23.1355   -2.6229   -8.5587 H         1 UNK         0.0793 
     98 H98        23.2286   -4.3853   -8.5740 H         1 UNK         0.0793 
     99 H99        25.3862   -3.3401   -7.7463 H         1 UNK         0.3024 
    100 H100       27.6181   -4.0250   -7.1153 H         1 UNK         0.1171 
    101 H101       27.1828   -1.5969   -7.4429 H         1 UNK         0.0786 
    102 H102       27.5176   -1.2703   -5.7450 H         1 UNK         0.0786 
    103 H103       28.8055   -1.7955   -6.8102 H         1 UNK         0.0786 
    104 H104       28.8860   -3.0761   -4.7340 H         1 UNK         0.2977 
    105 H105       24.9876    3.1492   -4.1948 H         1 UNK         0.3127 
    106 H106       26.9607    5.2857   -4.5994 H         1 UNK         0.0770 
    107 H107       24.9856    6.5217   -5.4672 H         1 UNK         0.0814 
    108 H108       24.6271    5.8221   -3.8990 H         1 UNK         0.0814 
    109 H109       23.9982    5.0714   -5.3671 H         1 UNK         0.0814 
    110 H110       26.1874    2.4394   -6.3448 H         1 UNK         0.2983 
    111 H111       26.1646    3.5195   -9.0228 H         1 UNK         0.0947 
    112 H112       26.2737    1.1316   -9.6818 H         1 UNK         0.0806 
    113 H113       25.1062    1.3201   -8.3819 H         1 UNK         0.0806 
    114 H114       26.7082    0.6648   -8.0456 H         1 UNK         0.0806 
    115 H115       27.7835    3.4048  -10.6095 H         1 UNK         0.3000 
    116 H116       30.5536    3.6246   -9.7122 H         1 UNK         0.0850 
    117 H117       29.3197    3.7174  -12.5206 H         1 UNK         0.0810 
    118 H118       30.9802    4.1265  -12.1138 H         1 UNK         0.0810 
    119 H119       29.6654    5.1122  -11.4967 H         1 UNK         0.0810 
    120 H120       28.5239    1.1306  -11.1303 H         1 UNK         0.3040 
    121 H121       30.5727   -0.5966  -12.1515 H         1 UNK         0.0766 
    122 H122       28.1838   -0.7591  -12.8645 H         1 UNK         0.0812 
    123 H123       27.7046   -1.2001  -11.2242 H         1 UNK         0.0812 
    124 H124       28.7169   -2.2812  -12.1705 H         1 UNK         0.0812 
    125 H125       31.6607   -2.2413  -11.1851 H         1 UNK         0.3205 
    126 H126       32.6932   -3.5174   -9.7470 H         1 UNK         0.0754 
    127 H127       31.5582   -4.5243   -7.8132 H         1 UNK         0.0769 
    128 H128       30.4698   -4.4986   -9.1903 H         1 UNK         0.0769 
    129 H129       30.2710   -3.3355   -7.8822 H         1 UNK         0.0769 
    130 H130       31.1884   -0.8267   -7.9282 H         1 UNK         0.2981 
    131 H131       33.3079   -0.6319   -5.9780 H         1 UNK         0.0541 
    132 H132       32.9786    0.8853   -9.2425 H         1 UNK         0.3459 
    133 H133       34.4719    1.7663   -9.0745 H         1 UNK         0.3459 
    134 H134       31.0462    1.2877   -6.6940 H         1 UNK         0.0612 
    135 H135       32.1664    1.5845   -5.3937 H         1 UNK         0.0612 
    136 H136       31.2550    1.3187   -3.1179 H         1 UNK         0.0624 
    137 H137       32.4402    0.0374   -3.2555 H         1 UNK         0.0624 
@<TRIPOS>BOND
     1    1    2 1    
     2    1   72 1    
     3    1   73 1    
     4    1   74 1    
     5    2    3 2    
     6    2    4 am   BACKBONE|DICT|INTERRES
     7    4    5 1    
     8    4   75 1    
     9    5    6 1    
    10    5   35 1    
    11    5   76 1    
    12    6    7 1    
    13    6   77 1    
    14    6   78 1    
    15    7    8 1    
    16    8    9 1    
    17    8   79 1    
    18    8   80 1    
    19    9   10 ar   
    20    9   14 ar   
    21   10   11 ar   
    22   10   81 1    
    23   11   12 ar   
    24   11   71 1    
    25   12   13 ar   
    26   12   82 1    
    27   13   14 ar   
    28   13   15 1    
    29   14   83 1    
    30   15   16 1    
    31   15   84 1    
    32   15   85 1    
    33   16   17 1    
    34   17   18 1    
    35   17   86 1    
    36   17   87 1    
    37   18   19 1    
    38   18   37 1    
    39   18   88 1    
    40   19   20 am   BACKBONE|DICT|INTERRES
    41   19   89 1    
    42   20   21 2    
    43   20   22 1    
    44   22   23 1    
    45   22   24 1    
    46   22   90 1    
    47   23   91 1    
    48   23   92 1    
    49   23   93 1    
    50   24   25 am   BACKBONE|DICT|INTERRES
    51   24   94 1    
    52   25   26 2    
    53   25   27 1    
    54   27   28 1    
    55   27   29 1    
    56   27   95 1    
    57   28   96 1    
    58   28   97 1    
    59   28   98 1    
    60   29   30 am   BACKBONE|DICT|INTERRES
    61   29   99 1    
    62   30   31 2    
    63   30   32 1    
    64   32   33 1    
    65   32   34 1    
    66   32  100 1    
    67   33  101 1    
    68   33  102 1    
    69   33  103 1    
    70   34   35 am   BACKBONE|DICT|INTERRES
    71   34  104 1    
    72   35   36 2    
    73   37   38 2    
    74   37   39 am   BACKBONE|DICT|INTERRES
    75   39   40 1    
    76   39  105 1    
    77   40   41 1    
    78   40   42 1    
    79   40  106 1    
    80   41  107 1    
    81   41  108 1    
    82   41  109 1    
    83   42   43 2    
    84   42   44 am   BACKBONE|DICT|INTERRES
    85   44   45 1    
    86   44  110 1    
    87   45   46 1    
    88   45   47 1    
    89   45  111 1    
    90   46  112 1    
    91   46  113 1    
    92   46  114 1    
    93   47   48 2    
    94   47   49 am   BACKBONE|DICT|INTERRES
    95   49   50 1    
    96   49  115 1    
    97   50   51 1    
    98   50   52 1    
    99   50  116 1    
   100   51  117 1    
   101   51  118 1    
   102   51  119 1    
   103   52   53 2    
   104   52   54 am   BACKBONE|DICT|INTERRES
   105   54   55 1    
   106   54  120 1    
   107   55   56 1    
   108   55   57 1    
   109   55  121 1    
   110   56  122 1    
   111   56  123 1    
   112   56  124 1    
   113   57   58 2    
   114   57   59 am   BACKBONE|DICT|INTERRES
   115   59   60 1    
   116   59  125 1    
   117   60   61 1    
   118   60   62 1    
   119   60  126 1    
   120   61  127 1    
   121   61  128 1    
   122   61  129 1    
   123   62   63 2    
   124   62   64 am   BACKBONE|DICT|INTERRES
   125   64   65 1    
   126   64  130 1    
   127   65   66 1    
   128   65   69 1    
   129   65  131 1    
   130   66   67 am   BACKBONE|DICT|INTERRES
   131   66   68 2    
   132   67  132 1    
   133   67  133 1    
   134   69   70 1    
   135   69  134 1    
   136   69  135 1    
   137   70   71 1    
   138   71  136 1    
   139   71  137 1    
@<TRIPOS>SUBSTRUCTURE
     1 UNK         1 GROUP             0       ****    0 ROOT    
