@<TRIPOS>MOLECULE
3R137
137   139    1
SMALL
USER_CHARGES


@<TRIPOS>ATOM
      1 CA         24.4608   -5.1175   -3.8815 C.3       0 UNK        -0.2020 
      2 C          24.9611   -4.1008   -2.8666 C.2       0 UNK         0.4855 
      3 O          24.1716   -3.2945   -2.3735 O.2       0 UNK        -0.5197 
      4 N          26.2648   -4.1354   -2.5548 N.am      1 UNK        -0.4892 
      5 CA         26.9478   -3.2559   -1.5974 C.3       1 UNK         0.0835 
      6 C6         28.4714   -3.5153   -1.5437 C.3       12 UNK        -0.0855 
      7 S7         28.9812   -5.2668   -1.3923 S.3       12 UNK        -0.2931 
      8 C8         30.7922   -5.1616   -1.6687 C.3       12 UNK         0.0378 
      9 C9         31.1269   -4.2300   -2.8254 C.ar      12 UNK        -0.0802 
     10 C10        31.6112   -2.9422   -2.5723 C.ar      12 UNK        -0.0944 
     11 C11        31.7080   -2.0063   -3.6056 C.ar      12 UNK        -0.0787 
     12 C12        31.3413   -2.3761   -4.9039 C.ar      12 UNK        -0.0862 
     13 C13        30.8882   -3.6721   -5.1742 C.ar      12 UNK        -0.0733 
     14 C14        30.8089   -4.6025   -4.1335 C.ar      12 UNK        -0.0832 
     15 C15        30.4464   -4.0480   -6.5838 C.3       12 UNK         0.0240 
     16 S16        28.8027   -4.8458   -6.6533 S.3       12 UNK        -0.2522 
     17 C17        27.7109   -3.6734   -5.7754 C.3       12 UNK        -0.0967 
     18 CA         27.1599   -2.5567   -6.6972 C.3       5 UNK         0.0660 
     19 N          25.7704   -2.1918   -6.3949 N.am      5 UNK        -0.4015 
     20 C          24.9985   -1.4781   -7.2279 C.2       4 UNK         0.4946 
     21 O          25.3943   -1.0119   -8.2953 O.2       4 UNK        -0.5353 
     22 CA         23.5348   -1.2406   -6.8255 C.3       4 UNK         0.0277 
     23 CB         22.6656   -2.4384   -7.2417 C.3       4 UNK        -0.1981 
     24 N          23.3032   -0.9389   -5.4112 N.am      4 UNK        -0.4209 
     25 C          23.8557    0.0701   -4.7236 C.2       3 UNK         0.4942 
     26 O          24.7735    0.7686   -5.1570 O.2       3 UNK        -0.5208 
     27 CA         23.2625    0.3730   -3.3335 C.3       3 UNK         0.0250 
     28 CB         21.9912   -0.4324   -2.9904 C.3       3 UNK        -0.1990 
     29 N          24.2716    0.1229   -2.3124 N.am      3 UNK        -0.4232 
     30 C          25.1776    1.0151   -1.8922 C.2       2 UNK         0.4993 
     31 O          25.1566    2.2097   -2.1925 O.2       2 UNK        -0.5286 
     32 CA         26.3034    0.5031   -0.9720 C.3       2 UNK         0.0209 
     33 CB         26.1232    1.0493    0.4548 C.3       2 UNK        -0.1931 
     34 N          26.4467   -0.9570   -0.9037 N.am      2 UNK        -0.4546 
     35 C          26.7393   -1.7644   -1.9324 C.2       1 UNK         0.5154 
     36 O          26.8769   -1.3819   -3.0988 O.2       1 UNK        -0.5181 
     37 C          28.0711   -1.3188   -6.7052 C.2       5 UNK         0.5014 
     38 O          28.7580   -1.0763   -7.6996 O.2       5 UNK        -0.5248 
     39 N          28.0263   -0.5351   -5.6180 N.am      6 UNK        -0.4434 
     40 CA         28.7555    0.7256   -5.4884 C.3       6 UNK         0.0363 
     41 CB         28.5936    1.2779   -4.0655 C.3       6 UNK        -0.1936 
     42 C          28.3284    1.7678   -6.5331 C.2       6 UNK         0.5081 
     43 O          29.1946    2.4481   -7.0794 O.2       6 UNK        -0.5248 
     44 N          27.0220    1.8497   -6.8252 N.am      7 UNK        -0.4718 
     45 CA         26.4677    2.7300   -7.8564 C.3       7 UNK         0.0273 
     46 CB         24.9328    2.7216   -7.7801 C.3       7 UNK        -0.1935 
     47 C          26.9433    2.3780   -9.2769 C.2       7 UNK         0.5018 
     48 O          27.2923    3.2859  -10.0326 O.2       7 UNK        -0.5186 
     49 N          26.9474    1.0813   -9.6171 N.am      8 UNK        -0.4240 
     50 CA         27.3519    0.5849  -10.9327 C.3       8 UNK         0.0235 
     51 CB         26.8047   -0.8360  -11.1469 C.3       8 UNK        -0.2000 
     52 C          28.8723    0.6105  -11.1442 C.2       8 UNK         0.4941 
     53 O          29.3261    1.0957  -12.1815 O.2       8 UNK        -0.5273 
     54 N          29.6300    0.0591  -10.1863 N.am      9 UNK        -0.4262 
     55 CA         31.0695   -0.1743  -10.3322 C.3       9 UNK         0.0264 
     56 CB         31.4537   -1.4307   -9.5311 C.3       9 UNK        -0.1955 
     57 C          31.9442    1.0080   -9.8908 C.2       9 UNK         0.5031 
     58 O          33.1459    0.9784  -10.1626 O.2       9 UNK        -0.5390 
     59 N          31.3772    1.9721   -9.1451 N.am      10 UNK        -0.4204 
     60 CA         32.0792    3.0646   -8.4450 C.3       10 UNK         0.0237 
     61 CB         32.7115    4.0499   -9.4515 C.3       10 UNK        -0.1985 
     62 C          33.0953    2.5580   -7.3949 C.2       10 UNK         0.4970 
     63 O          34.0121    3.2917   -7.0226 O.2       10 UNK        -0.4914 
     64 N          32.9230    1.3002   -6.9640 N.am      11 UNK        -0.4285 
     65 CA         33.8657    0.5025   -6.1697 C.3       11 UNK         0.1007 
     66 C          35.2315    0.2139   -6.8694 C.2       11 UNK         0.5703 
     67 N          35.3321    0.3199   -8.1908 N.am      11 UNK        -0.7361 
     68 O          36.2100   -0.1407   -6.2164 O.2       11 UNK        -0.4986 
     69 C69        33.9861    1.0119   -4.7034 C.3       12 UNK        -0.0947 
     70 S70        33.9348   -0.3597   -3.5019 S.3       12 UNK        -0.2240 
     71 C71        32.1388   -0.5791   -3.3001 C.3       12 UNK         0.0194 
     72 H72        23.6401   -5.6950   -3.4567 H         1 UNK         0.0906 
     73 H73        25.2423   -5.8154   -4.1817 H         1 UNK         0.0906 
     74 H74        24.0930   -4.6117   -4.7732 H         1 UNK         0.0906 
     75 H75        26.8594   -4.8386   -2.9700 H         1 UNK         0.3140 
     76 H76        26.5214   -3.4647   -0.6142 H         1 UNK         0.1085 
     77 H77        28.9047   -3.1147   -2.4599 H         1 UNK         0.0836 
     78 H78        28.9267   -2.9578   -0.7225 H         1 UNK         0.0836 
     79 H79        31.2722   -4.8202   -0.7502 H         1 UNK         0.0731 
     80 H80        31.1860   -6.1588   -1.8704 H         1 UNK         0.0731 
     81 H81        31.8458   -2.6449   -1.5592 H         1 UNK         0.1312 
     82 H82        31.3843   -1.6470   -5.7003 H         1 UNK         0.1406 
     83 H83        30.4199   -5.5933   -4.3265 H         1 UNK         0.1631 
     84 H84        30.4316   -3.1722   -7.2319 H         1 UNK         0.0717 
     85 H85        31.1832   -4.7292   -7.0108 H         1 UNK         0.0717 
     86 H86        26.8847   -4.2793   -5.4055 H         1 UNK         0.0934 
     87 H87        28.1969   -3.2791   -4.8810 H         1 UNK         0.0934 
     88 H88        27.1476   -2.9423   -7.7197 H         1 UNK         0.0739 
     89 H89        25.3948   -2.4750   -5.5029 H         1 UNK         0.3093 
     90 H90        23.1921   -0.3704   -7.3891 H         1 UNK         0.0818 
     91 H91        21.6054   -2.2305   -7.0962 H         1 UNK         0.0819 
     92 H92        22.8035   -2.6722   -8.2986 H         1 UNK         0.0819 
     93 H93        22.9131   -3.3366   -6.6750 H         1 UNK         0.0819 
     94 H94        22.5695   -1.4634   -4.9570 H         1 UNK         0.3041 
     95 H95        22.9917    1.4309   -3.3310 H         1 UNK         0.0784 
     96 H96        21.2009   -0.2586   -3.7223 H         1 UNK         0.0793 
     97 H97        22.1792   -1.5057   -2.9428 H         1 UNK         0.0793 
     98 H98        21.5929   -0.1305   -2.0214 H         1 UNK         0.0793 
     99 H99        24.3989   -0.8432   -2.0410 H         1 UNK         0.3024 
    100 H100       27.2367    0.9024   -1.3737 H         1 UNK         0.1171 
    101 H101       26.9673    0.7854    1.0923 H         1 UNK         0.0786 
    102 H102       26.0528    2.1381    0.4522 H         1 UNK         0.0786 
    103 H103       25.2147    0.6659    0.9211 H         1 UNK         0.0786 
    104 H104       26.3456   -1.3652    0.0148 H         1 UNK         0.2977 
    105 H105       27.4491   -0.8101   -4.8252 H         1 UNK         0.3127 
    106 H106       29.8132    0.5114   -5.6524 H         1 UNK         0.0770 
    107 H107       27.5485    1.4943   -3.8403 H         1 UNK         0.0814 
    108 H108       29.1558    2.2039   -3.9389 H         1 UNK         0.0814 
    109 H109       28.9596    0.5696   -3.3220 H         1 UNK         0.0814 
    110 H110       26.3613    1.2820   -6.3010 H         1 UNK         0.2983 
    111 H111       26.8104    3.7444   -7.6403 H         1 UNK         0.0947 
    112 H112       24.4997    3.3859   -8.5290 H         1 UNK         0.0806 
    113 H113       24.5832    3.0606   -6.8047 H         1 UNK         0.0806 
    114 H114       24.5263    1.7246   -7.9523 H         1 UNK         0.0806 
    115 H115       26.5988    0.3919   -8.9556 H         1 UNK         0.3000 
    116 H116       26.9026    1.2296  -11.6916 H         1 UNK         0.0850 
    117 H117       25.7158   -0.8512  -11.0977 H         1 UNK         0.0810 
    118 H118       27.1809   -1.5321  -10.3956 H         1 UNK         0.0810 
    119 H119       27.0906   -1.2236  -12.1256 H         1 UNK         0.0810 
    120 H120       29.1880   -0.3167   -9.3477 H         1 UNK         0.3040 
    121 H121       31.2963   -0.3696  -11.3828 H         1 UNK         0.0766 
    122 H122       30.8512   -2.2904   -9.8250 H         1 UNK         0.0812 
    123 H123       31.3235   -1.2807   -8.4594 H         1 UNK         0.0812 
    124 H124       32.4988   -1.6966   -9.6964 H         1 UNK         0.0812 
    125 H125       30.3879    1.8991   -8.9358 H         1 UNK         0.3205 
    126 H126       31.3227    3.6170   -7.8880 H         1 UNK         0.0754 
    127 H127       33.5462    3.6018   -9.9914 H         1 UNK         0.0769 
    128 H128       33.0938    4.9362   -8.9437 H         1 UNK         0.0769 
    129 H129       31.9804    4.3894  -10.1853 H         1 UNK         0.0769 
    130 H130       32.1323    0.7958   -7.3326 H         1 UNK         0.2981 
    131 H131       33.3918   -0.4781   -6.1445 H         1 UNK         0.0541 
    132 H132       34.5424    0.5989   -8.7634 H         1 UNK         0.3459 
    133 H133       36.2171    0.1209   -8.6287 H         1 UNK         0.3459 
    134 H134       33.1806    1.7060   -4.4584 H         1 UNK         0.0612 
    135 H135       34.9048    1.5819   -4.5546 H         1 UNK         0.0612 
    136 H136       31.5912    0.1101   -3.9437 H         1 UNK         0.0624 
    137 H137       31.8656   -0.3127   -2.2779 H         1 UNK         0.0624 
@<TRIPOS>BOND
     1    1    2 1    
     2    1   72 1    
     3    1   73 1    
     4    1   74 1    
     5    2    3 2    
     6    2    4 am   BACKBONE|DICT|INTERRES
     7    4    5 1    
     8    4   75 1    
     9    5    6 1    
    10    5   35 1    
    11    5   76 1    
    12    6    7 1    
    13    6   77 1    
    14    6   78 1    
    15    7    8 1    
    16    8    9 1    
    17    8   79 1    
    18    8   80 1    
    19    9   10 ar   
    20    9   14 ar   
    21   10   11 ar   
    22   10   81 1    
    23   11   12 ar   
    24   11   71 1    
    25   12   13 ar   
    26   12   82 1    
    27   13   14 ar   
    28   13   15 1    
    29   14   83 1    
    30   15   16 1    
    31   15   84 1    
    32   15   85 1    
    33   16   17 1    
    34   17   18 1    
    35   17   86 1    
    36   17   87 1    
    37   18   19 1    
    38   18   37 1    
    39   18   88 1    
    40   19   20 am   BACKBONE|DICT|INTERRES
    41   19   89 1    
    42   20   21 2    
    43   20   22 1    
    44   22   23 1    
    45   22   24 1    
    46   22   90 1    
    47   23   91 1    
    48   23   92 1    
    49   23   93 1    
    50   24   25 am   BACKBONE|DICT|INTERRES
    51   24   94 1    
    52   25   26 2    
    53   25   27 1    
    54   27   28 1    
    55   27   29 1    
    56   27   95 1    
    57   28   96 1    
    58   28   97 1    
    59   28   98 1    
    60   29   30 am   BACKBONE|DICT|INTERRES
    61   29   99 1    
    62   30   31 2    
    63   30   32 1    
    64   32   33 1    
    65   32   34 1    
    66   32  100 1    
    67   33  101 1    
    68   33  102 1    
    69   33  103 1    
    70   34   35 am   BACKBONE|DICT|INTERRES
    71   34  104 1    
    72   35   36 2    
    73   37   38 2    
    74   37   39 am   BACKBONE|DICT|INTERRES
    75   39   40 1    
    76   39  105 1    
    77   40   41 1    
    78   40   42 1    
    79   40  106 1    
    80   41  107 1    
    81   41  108 1    
    82   41  109 1    
    83   42   43 2    
    84   42   44 am   BACKBONE|DICT|INTERRES
    85   44   45 1    
    86   44  110 1    
    87   45   46 1    
    88   45   47 1    
    89   45  111 1    
    90   46  112 1    
    91   46  113 1    
    92   46  114 1    
    93   47   48 2    
    94   47   49 am   BACKBONE|DICT|INTERRES
    95   49   50 1    
    96   49  115 1    
    97   50   51 1    
    98   50   52 1    
    99   50  116 1    
   100   51  117 1    
   101   51  118 1    
   102   51  119 1    
   103   52   53 2    
   104   52   54 am   BACKBONE|DICT|INTERRES
   105   54   55 1    
   106   54  120 1    
   107   55   56 1    
   108   55   57 1    
   109   55  121 1    
   110   56  122 1    
   111   56  123 1    
   112   56  124 1    
   113   57   58 2    
   114   57   59 am   BACKBONE|DICT|INTERRES
   115   59   60 1    
   116   59  125 1    
   117   60   61 1    
   118   60   62 1    
   119   60  126 1    
   120   61  127 1    
   121   61  128 1    
   122   61  129 1    
   123   62   63 2    
   124   62   64 am   BACKBONE|DICT|INTERRES
   125   64   65 1    
   126   64  130 1    
   127   65   66 1    
   128   65   69 1    
   129   65  131 1    
   130   66   67 am   BACKBONE|DICT|INTERRES
   131   66   68 2    
   132   67  132 1    
   133   67  133 1    
   134   69   70 1    
   135   69  134 1    
   136   69  135 1    
   137   70   71 1    
   138   71  136 1    
   139   71  137 1    
@<TRIPOS>SUBSTRUCTURE
     1 UNK         1 GROUP             0       ****    0 ROOT    
