@<TRIPOS>MOLECULE
3R137
137   139    1
SMALL
USER_CHARGES


@<TRIPOS>ATOM
      1 CA         26.0911   -6.3585   -3.3068 C.3       0 UNK        -0.2020 
      2 C          25.9582   -5.8252   -1.8883 C.2       0 UNK         0.4855 
      3 O          25.2706   -6.4308   -1.0664 O.2       0 UNK        -0.5197 
      4 N          26.6128   -4.6940   -1.5941 N.am      1 UNK        -0.4892 
      5 CA         26.6049   -4.0395   -0.2783 C.3       1 UNK         0.0835 
      6 C6         27.8584   -3.1484   -0.0827 C.3       12 UNK        -0.0855 
      7 S7         28.0037   -1.7580   -1.2666 S.3       12 UNK        -0.2931 
      8 C8         29.8182   -1.5383   -1.3231 C.3       12 UNK         0.0378 
      9 C9         30.4780   -2.1067   -2.5792 C.ar      12 UNK        -0.0802 
     10 C10        31.5891   -1.4527   -3.1211 C.ar      12 UNK        -0.0944 
     11 C11        32.2139   -1.9349   -4.2751 C.ar      12 UNK        -0.0787 
     12 C12        31.7117   -3.0829   -4.8982 C.ar      12 UNK        -0.0862 
     13 C13        30.6004   -3.7475   -4.3713 C.ar      12 UNK        -0.0733 
     14 C14        30.0084   -3.2698   -3.1990 C.ar      12 UNK        -0.0832 
     15 C15        30.0451   -4.9898   -5.0562 C.3       12 UNK         0.0240 
     16 S16        29.0627   -4.5974   -6.5435 S.3       12 UNK        -0.2522 
     17 C17        27.6429   -3.6594   -5.8722 C.3       12 UNK        -0.0967 
     18 CA         27.2435   -2.4340   -6.7340 C.3       5 UNK         0.0660 
     19 N          25.9887   -1.8344   -6.2645 N.am      5 UNK        -0.4015 
     20 C          25.2968   -0.8921   -6.9225 C.2       4 UNK         0.4946 
     21 O          25.6127   -0.4531   -8.0264 O.2       4 UNK        -0.5353 
     22 CA         24.0676   -0.3023   -6.2116 C.3       4 UNK         0.0277 
     23 CB         22.8376   -1.1995   -6.4208 C.3       4 UNK        -0.1981 
     24 N          24.2663   -0.0695   -4.7782 N.am      4 UNK        -0.4209 
     25 C          25.2218    0.6936   -4.2319 C.2       3 UNK         0.4942 
     26 O          26.0746    1.2828   -4.8951 O.2       3 UNK        -0.5208 
     27 CA         25.2691    0.8072   -2.6955 C.3       3 UNK         0.0250 
     28 CB         24.5834    2.1034   -2.2230 C.3       3 UNK        -0.1990 
     29 N          24.7721   -0.3650   -1.9532 N.am      3 UNK        -0.4232 
     30 C          23.5269   -0.8648   -1.8869 C.2       2 UNK         0.4993 
     31 O          22.5738   -0.3955   -2.5097 O.2       2 UNK        -0.5286 
     32 CA         23.3292   -2.1321   -1.0350 C.3       2 UNK         0.0209 
     33 CB         22.1401   -2.9836   -1.5203 C.3       2 UNK        -0.1931 
     34 N          24.5397   -2.9553   -1.0547 N.am      2 UNK        -0.4546 
     35 C          25.3026   -3.2566    0.0038 C.2       1 UNK         0.5154 
     36 O          25.0326   -2.9233    1.1586 O.2       1 UNK        -0.5181 
     37 C          28.3677   -1.3808   -6.8378 C.2       5 UNK         0.5014 
     38 O          29.0264   -1.3020   -7.8763 O.2       5 UNK        -0.5248 
     39 N          28.5194   -0.5572   -5.7885 N.am      6 UNK        -0.4434 
     40 CA         29.4919    0.5362   -5.7197 C.3       6 UNK         0.0363 
     41 CB         29.4572    1.1787   -4.3234 C.3       6 UNK        -0.1936 
     42 C          29.2649    1.6003   -6.8039 C.2       6 UNK         0.5081 
     43 O          30.2341    2.0917   -7.3832 O.2       6 UNK        -0.5248 
     44 N          27.9904    1.9185   -7.0662 N.am      7 UNK        -0.4718 
     45 CA         27.5606    2.8213   -8.1312 C.3       7 UNK         0.0273 
     46 CB         26.0827    3.1917   -7.9269 C.3       7 UNK        -0.1935 
     47 C          27.7958    2.2314   -9.5314 C.2       7 UNK         0.5018 
     48 O          28.3708    2.9153  -10.3780 O.2       7 UNK        -0.5186 
     49 N          27.3633    0.9801   -9.7501 N.am      8 UNK        -0.4240 
     50 CA         27.4612    0.2735  -11.0317 C.3       8 UNK         0.0235 
     51 CB         26.6664   -1.0407  -10.9698 C.3       8 UNK        -0.2000 
     52 C          28.9064    0.0055  -11.4760 C.2       8 UNK         0.4941 
     53 O          29.2262    0.2250  -12.6451 O.2       8 UNK        -0.5273 
     54 N          29.7557   -0.4460  -10.5431 N.am      9 UNK        -0.4262 
     55 CA         31.1820   -0.6823  -10.7854 C.3       9 UNK         0.0264 
     56 CB         31.6947   -1.7220   -9.7771 C.3       9 UNK        -0.1955 
     57 C          32.0292    0.6039  -10.7342 C.2       9 UNK         0.5031 
     58 O          33.1960    0.5608  -11.1262 O.2       9 UNK        -0.5390 
     59 N          31.4439    1.7090  -10.2454 N.am      10 UNK        -0.4204 
     60 CA         32.0349    3.0412  -10.0533 C.3       10 UNK         0.0237 
     61 CB         32.4454    3.6666  -11.4034 C.3       10 UNK        -0.1985 
     62 C          33.1692    3.0854   -9.0076 C.2       10 UNK         0.4970 
     63 O          33.9380    4.0484   -8.9852 O.2       10 UNK        -0.4914 
     64 N          33.2441    2.0603   -8.1525 N.am      11 UNK        -0.4285 
     65 CA         34.1783    1.9463   -7.0259 C.3       11 UNK         0.1007 
     66 C          33.6880    2.6491   -5.7275 C.2       11 UNK         0.5703 
     67 N          32.4368    3.0861   -5.6381 N.am      11 UNK        -0.7361 
     68 O          34.4665    2.8196   -4.7924 O.2       11 UNK        -0.4986 
     69 C69        34.5889    0.4688   -6.7860 C.3       12 UNK        -0.0947 
     70 S70        33.1661   -0.6461   -6.5354 S.3       12 UNK        -0.2240 
     71 C71        33.4370   -1.2184   -4.8330 C.3       12 UNK         0.0194 
     72 H72        25.1673   -6.1919   -3.8601 H         1 UNK         0.0906 
     73 H73        26.9075   -5.8806   -3.8465 H         1 UNK         0.0906 
     74 H74        26.2874   -7.4302   -3.2878 H         1 UNK         0.0906 
     75 H75        27.1510   -4.2238   -2.3053 H         1 UNK         0.3140 
     76 H76        26.6487   -4.8239    0.4812 H         1 UNK         0.1085 
     77 H77        27.8792   -2.7395    0.9296 H         1 UNK         0.0836 
     78 H78        28.7486   -3.7751   -0.1595 H         1 UNK         0.0836 
     79 H79        30.0162   -0.4673   -1.2582 H         1 UNK         0.0731 
     80 H80        30.2839   -1.9816   -0.4422 H         1 UNK         0.0731 
     81 H81        31.9695   -0.5608   -2.6418 H         1 UNK         0.1312 
     82 H82        32.1812   -3.4537   -5.7992 H         1 UNK         0.1406 
     83 H83        29.1705   -3.8015   -2.7765 H         1 UNK         0.1631 
     84 H84        29.4337   -5.5732   -4.3663 H         1 UNK         0.0717 
     85 H85        30.8726   -5.6384   -5.3469 H         1 UNK         0.0717 
     86 H86        26.8021   -4.3525   -5.8175 H         1 UNK         0.0934 
     87 H87        27.8417   -3.3506   -4.8469 H         1 UNK         0.0934 
     88 H88        27.0554   -2.7945   -7.7480 H         1 UNK         0.0739 
     89 H89        25.6465   -2.1309   -5.3635 H         1 UNK         0.3093 
     90 H90        23.8634    0.6678   -6.6693 H         1 UNK         0.0818 
     91 H91        21.9376   -0.7390   -6.0125 H         1 UNK         0.0819 
     92 H92        22.6572   -1.3732   -7.4828 H         1 UNK         0.0819 
     93 H93        22.9595   -2.1738   -5.9461 H         1 UNK         0.0819 
     94 H94        23.5586   -0.4311   -4.1447 H         1 UNK         0.3041 
     95 H95        26.3260    0.8860   -2.4347 H         1 UNK         0.0784 
     96 H96        25.0308    2.9758   -2.7014 H         1 UNK         0.0793 
     97 H97        23.5197    2.1143   -2.4627 H         1 UNK         0.0793 
     98 H98        24.6866    2.2365   -1.1461 H         1 UNK         0.0793 
     99 H99        25.4846   -0.8590   -1.4316 H         1 UNK         0.3024 
    100 H100       23.1133   -1.7911   -0.0198 H         1 UNK         0.1171 
    101 H101       22.2665   -3.3012   -2.5560 H         1 UNK         0.0786 
    102 H102       21.2049   -2.4251   -1.4601 H         1 UNK         0.0786 
    103 H103       22.0194   -3.8779   -0.9085 H         1 UNK         0.0786 
    104 H104       24.8490   -3.2804   -1.9593 H         1 UNK         0.2977 
    105 H105       27.8983   -0.6526   -5.0001 H         1 UNK         0.3127 
    106 H106       30.4787    0.1000   -5.8737 H         1 UNK         0.0770 
    107 H107       29.5245    0.4319   -3.5355 H         1 UNK         0.0814 
    108 H108       28.5441    1.7503   -4.1575 H         1 UNK         0.0814 
    109 H109       30.2949    1.8635   -4.1927 H         1 UNK         0.0814 
    110 H110       27.2645    1.5072   -6.4861 H         1 UNK         0.2983 
    111 H111       28.1530    3.7359   -8.0537 H         1 UNK         0.0947 
    112 H112       25.7451    3.8884   -8.6953 H         1 UNK         0.0806 
    113 H113       25.9257    3.6717   -6.9607 H         1 UNK         0.0806 
    114 H114       25.4346    2.3161   -7.9715 H         1 UNK         0.0806 
    115 H115       26.8698    0.4922   -9.0039 H         1 UNK         0.3000 
    116 H116       26.9999    0.9098  -11.7900 H         1 UNK         0.0850 
    117 H117       26.7277   -1.5821  -11.9148 H         1 UNK         0.0810 
    118 H118       25.6106   -0.8552  -10.7714 H         1 UNK         0.0810 
    119 H119       27.0419   -1.7017  -10.1875 H         1 UNK         0.0810 
    120 H120       29.4117   -0.6429   -9.6034 H         1 UNK         0.3040 
    121 H121       31.3046   -1.1031  -11.7857 H         1 UNK         0.0766 
    122 H122       32.7631   -1.9044   -9.9007 H         1 UNK         0.0812 
    123 H123       31.1845   -2.6773   -9.9004 H         1 UNK         0.0812 
    124 H124       31.5338   -1.3940   -8.7515 H         1 UNK         0.0812 
    125 H125       30.4841    1.6261   -9.9359 H         1 UNK         0.3205 
    126 H126       31.2335    3.6558   -9.6403 H         1 UNK         0.0754 
    127 H127       32.7312    4.7120  -11.2810 H         1 UNK         0.0769 
    128 H128       31.6222    3.6397  -12.1176 H         1 UNK         0.0769 
    129 H129       33.2948    3.1484  -11.8492 H         1 UNK         0.0769 
    130 H130       32.5362    1.3421   -8.2041 H         1 UNK         0.2981 
    131 H131       35.0923    2.4744   -7.3034 H         1 UNK         0.0541 
    132 H132       31.7735    2.9014   -6.3825 H         1 UNK         0.3459 
    133 H133       32.1406    3.5593   -4.8005 H         1 UNK         0.3459 
    134 H134       35.2845    0.3884   -5.9487 H         1 UNK         0.0612 
    135 H135       35.1370    0.1033   -7.6556 H         1 UNK         0.0612 
    136 H136       34.2940   -1.8926   -4.8118 H         1 UNK         0.0624 
    137 H137       33.6954   -0.3608   -4.2096 H         1 UNK         0.0624 
@<TRIPOS>BOND
     1    1    2 1    
     2    1   72 1    
     3    1   73 1    
     4    1   74 1    
     5    2    3 2    
     6    2    4 am   BACKBONE|DICT|INTERRES
     7    4    5 1    
     8    4   75 1    
     9    5    6 1    
    10    5   35 1    
    11    5   76 1    
    12    6    7 1    
    13    6   77 1    
    14    6   78 1    
    15    7    8 1    
    16    8    9 1    
    17    8   79 1    
    18    8   80 1    
    19    9   10 ar   
    20    9   14 ar   
    21   10   11 ar   
    22   10   81 1    
    23   11   12 ar   
    24   11   71 1    
    25   12   13 ar   
    26   12   82 1    
    27   13   14 ar   
    28   13   15 1    
    29   14   83 1    
    30   15   16 1    
    31   15   84 1    
    32   15   85 1    
    33   16   17 1    
    34   17   18 1    
    35   17   86 1    
    36   17   87 1    
    37   18   19 1    
    38   18   37 1    
    39   18   88 1    
    40   19   20 am   BACKBONE|DICT|INTERRES
    41   19   89 1    
    42   20   21 2    
    43   20   22 1    
    44   22   23 1    
    45   22   24 1    
    46   22   90 1    
    47   23   91 1    
    48   23   92 1    
    49   23   93 1    
    50   24   25 am   BACKBONE|DICT|INTERRES
    51   24   94 1    
    52   25   26 2    
    53   25   27 1    
    54   27   28 1    
    55   27   29 1    
    56   27   95 1    
    57   28   96 1    
    58   28   97 1    
    59   28   98 1    
    60   29   30 am   BACKBONE|DICT|INTERRES
    61   29   99 1    
    62   30   31 2    
    63   30   32 1    
    64   32   33 1    
    65   32   34 1    
    66   32  100 1    
    67   33  101 1    
    68   33  102 1    
    69   33  103 1    
    70   34   35 am   BACKBONE|DICT|INTERRES
    71   34  104 1    
    72   35   36 2    
    73   37   38 2    
    74   37   39 am   BACKBONE|DICT|INTERRES
    75   39   40 1    
    76   39  105 1    
    77   40   41 1    
    78   40   42 1    
    79   40  106 1    
    80   41  107 1    
    81   41  108 1    
    82   41  109 1    
    83   42   43 2    
    84   42   44 am   BACKBONE|DICT|INTERRES
    85   44   45 1    
    86   44  110 1    
    87   45   46 1    
    88   45   47 1    
    89   45  111 1    
    90   46  112 1    
    91   46  113 1    
    92   46  114 1    
    93   47   48 2    
    94   47   49 am   BACKBONE|DICT|INTERRES
    95   49   50 1    
    96   49  115 1    
    97   50   51 1    
    98   50   52 1    
    99   50  116 1    
   100   51  117 1    
   101   51  118 1    
   102   51  119 1    
   103   52   53 2    
   104   52   54 am   BACKBONE|DICT|INTERRES
   105   54   55 1    
   106   54  120 1    
   107   55   56 1    
   108   55   57 1    
   109   55  121 1    
   110   56  122 1    
   111   56  123 1    
   112   56  124 1    
   113   57   58 2    
   114   57   59 am   BACKBONE|DICT|INTERRES
   115   59   60 1    
   116   59  125 1    
   117   60   61 1    
   118   60   62 1    
   119   60  126 1    
   120   61  127 1    
   121   61  128 1    
   122   61  129 1    
   123   62   63 2    
   124   62   64 am   BACKBONE|DICT|INTERRES
   125   64   65 1    
   126   64  130 1    
   127   65   66 1    
   128   65   69 1    
   129   65  131 1    
   130   66   67 am   BACKBONE|DICT|INTERRES
   131   66   68 2    
   132   67  132 1    
   133   67  133 1    
   134   69   70 1    
   135   69  134 1    
   136   69  135 1    
   137   70   71 1    
   138   71  136 1    
   139   71  137 1    
@<TRIPOS>SUBSTRUCTURE
     1 UNK         1 GROUP             0       ****    0 ROOT    
