@<TRIPOS>MOLECULE
3R137
137   139    1
SMALL
USER_CHARGES


@<TRIPOS>ATOM
      1 CA         25.7379   -4.5657    2.0352 C.3       0 UNK        -0.2020 
      2 C          26.1081   -3.6370    0.8890 C.2       0 UNK         0.4855 
      3 O          25.7504   -2.4588    0.9120 O.2       0 UNK        -0.5197 
      4 N          26.8073   -4.1569   -0.1273 N.am      1 UNK        -0.4892 
      5 CA         27.3004   -3.4252   -1.3050 C.3       1 UNK         0.0835 
      6 C6         28.5608   -4.1108   -1.9003 C.3       12 UNK        -0.0855 
      7 S7         29.9224   -4.1809   -0.6823 S.3       12 UNK        -0.2931 
      8 C8         31.4055   -4.2162   -1.7498 C.3       12 UNK         0.0378 
      9 C9         31.7107   -2.9325   -2.5264 C.ar      12 UNK        -0.0802 
     10 C10        32.6173   -3.0025   -3.5872 C.ar      12 UNK        -0.0944 
     11 C11        32.9451   -1.8720   -4.3406 C.ar      12 UNK        -0.0787 
     12 C12        32.3219   -0.6545   -4.0367 C.ar      12 UNK        -0.0862 
     13 C13        31.4137   -0.5568   -2.9777 C.ar      12 UNK        -0.0733 
     14 C14        31.1389   -1.6944   -2.2086 C.ar      12 UNK        -0.0832 
     15 C15        30.7752    0.8006   -2.6795 C.3       12 UNK         0.0240 
     16 S16        29.1264    0.7409   -1.8905 S.3       12 UNK        -0.2522 
     17 C17        28.1258   -0.2651   -3.0433 C.3       12 UNK        -0.0967 
     18 CA         28.0947    0.1886   -4.5220 C.3       5 UNK         0.0660 
     19 N          27.2954   -0.7230   -5.3406 N.am      5 UNK        -0.4015 
     20 C          27.4801   -0.9150   -6.6535 C.2       4 UNK         0.4946 
     21 O          28.4273   -0.4468   -7.2833 O.2       4 UNK        -0.5353 
     22 CA         26.4287   -1.7460   -7.4111 C.3       4 UNK         0.0277 
     23 CB         26.8811   -3.2061   -7.5588 C.3       4 UNK        -0.1981 
     24 N          25.1024   -1.7073   -6.7934 N.am      4 UNK        -0.4209 
     25 C          24.3235   -0.6175   -6.7487 C.2       3 UNK         0.4942 
     26 O          24.6338    0.4655   -7.2418 O.2       3 UNK        -0.5208 
     27 CA         22.9991   -0.7389   -5.9782 C.3       3 UNK         0.0250 
     28 CB         21.8799   -1.2275   -6.9108 C.3       3 UNK        -0.1990 
     29 N          23.0705   -1.6081   -4.7990 N.am      3 UNK        -0.4232 
     30 C          23.9194   -1.4638   -3.7707 C.2       2 UNK         0.4993 
     31 O          24.7768   -0.5768   -3.7183 O.2       2 UNK        -0.5286 
     32 CA         23.7748   -2.4645   -2.6066 C.3       2 UNK         0.0209 
     33 CB         23.1459   -3.8153   -3.0213 C.3       2 UNK        -0.1931 
     34 N          25.0299   -2.6955   -1.8829 N.am      2 UNK        -0.4546 
     35 C          26.1778   -3.2066   -2.3508 C.2       1 UNK         0.5154 
     36 O          26.3584   -3.5119   -3.5317 O.2       1 UNK        -0.5181 
     37 C          27.5745    1.6270   -4.6894 C.2       5 UNK         0.5014 
     38 O          28.3776    2.5295   -4.9246 O.2       5 UNK        -0.5248 
     39 N          26.2474    1.8128   -4.6019 N.am      6 UNK        -0.4434 
     40 CA         25.5756    3.1137   -4.7074 C.3       6 UNK         0.0363 
     41 CB         24.0712    2.9425   -4.4472 C.3       6 UNK        -0.1936 
     42 C          25.8160    3.8312   -6.0484 C.2       6 UNK         0.5081 
     43 O          26.0846    5.0326   -6.0517 O.2       6 UNK        -0.5248 
     44 N          25.7463    3.0818   -7.1566 N.am      7 UNK        -0.4718 
     45 CA         26.0532    3.5652   -8.5069 C.3       7 UNK         0.0273 
     46 CB         25.2403    2.7426   -9.5218 C.3       7 UNK        -0.1935 
     47 C          27.5545    3.4954   -8.8466 C.2       7 UNK         0.5018 
     48 O          27.9428    3.9623   -9.9174 O.2       7 UNK        -0.5186 
     49 N          28.3571    2.8775   -7.9657 N.am      8 UNK        -0.4240 
     50 CA         29.7913    2.5769   -8.0849 C.3       8 UNK         0.0235 
     51 CB         30.6279    3.8690   -8.1799 C.3       8 UNK        -0.2000 
     52 C          30.1512    1.5722   -9.1983 C.2       8 UNK         0.4941 
     53 O          31.3367    1.3435   -9.4387 O.2       8 UNK        -0.5273 
     54 N          29.1468    0.9448   -9.8263 N.am      9 UNK        -0.4262 
     55 CA         29.2752   -0.0437  -10.9015 C.3       9 UNK         0.0264 
     56 CB         27.8701   -0.4378  -11.3852 C.3       9 UNK        -0.1955 
     57 C          30.0906   -1.2980  -10.5325 C.2       9 UNK         0.5031 
     58 O          30.5980   -1.9644  -11.4360 O.2       9 UNK        -0.5390 
     59 N          30.2175   -1.5925   -9.2307 N.am      10 UNK        -0.4204 
     60 CA         31.0412   -2.6739   -8.6899 C.3       10 UNK         0.0237 
     61 CB         30.7864   -2.7980   -7.1773 C.3       10 UNK        -0.1985 
     62 C          32.5520   -2.5213   -8.9563 C.2       10 UNK         0.4970 
     63 O          33.2355   -3.5442   -9.0242 O.2       10 UNK        -0.4914 
     64 N          33.0586   -1.2841   -9.0702 N.am      11 UNK        -0.4285 
     65 CA         34.5045   -1.0036   -9.1620 C.3       11 UNK         0.1007 
     66 C          34.8957    0.3503   -9.8184 C.2       11 UNK         0.5703 
     67 N          33.9797    1.2509  -10.1445 N.am      11 UNK        -0.7361 
     68 O          36.0752    0.5805  -10.0769 O.2       11 UNK        -0.4986 
     69 C69        35.2642   -1.2604   -7.8240 C.3       12 UNK        -0.0947 
     70 S70        34.4616   -0.5225   -6.3559 S.3       12 UNK        -0.2240 
     71 C71        33.9606   -2.0417   -5.4726 C.3       12 UNK         0.0194 
     72 H72        26.1204   -5.5748    1.8827 H         1 UNK         0.0906 
     73 H73        26.1469   -4.1864    2.9713 H         1 UNK         0.0906 
     74 H74        24.6545   -4.6246    2.1355 H         1 UNK         0.0906 
     75 H75        27.0597   -5.1348   -0.0977 H         1 UNK         0.3140 
     76 H76        27.6005   -2.4271   -0.9774 H         1 UNK         0.1085 
     77 H77        28.9093   -3.5795   -2.7873 H         1 UNK         0.0836 
     78 H78        28.3302   -5.1260   -2.2285 H         1 UNK         0.0836 
     79 H79        31.3018   -5.0488   -2.4477 H         1 UNK         0.0731 
     80 H80        32.2680   -4.4465   -1.1230 H         1 UNK         0.0731 
     81 H81        33.0794   -3.9508   -3.8278 H         1 UNK         0.1312 
     82 H82        32.5415    0.2308   -4.6155 H         1 UNK         0.1406 
     83 H83        30.4652   -1.6144   -1.3685 H         1 UNK         0.1631 
     84 H84        30.6968    1.3898   -3.5944 H         1 UNK         0.0717 
     85 H85        31.4460    1.3541   -2.0214 H         1 UNK         0.0717 
     86 H86        28.5004   -1.2859   -3.0027 H         1 UNK         0.0934 
     87 H87        27.1149   -0.3026   -2.6360 H         1 UNK         0.0934 
     88 H88        29.1197    0.1634   -4.8976 H         1 UNK         0.0739 
     89 H89        26.4751   -1.1208   -4.8984 H         1 UNK         0.3093 
     90 H90        26.3366   -1.3172   -8.4108 H         1 UNK         0.0818 
     91 H91        27.7935   -3.2703   -8.1519 H         1 UNK         0.0819 
     92 H92        27.0788   -3.6693   -6.5907 H         1 UNK         0.0819 
     93 H93        26.1293   -3.8062   -8.0717 H         1 UNK         0.0819 
     94 H94        24.7786   -2.5523   -6.3447 H         1 UNK         0.3041 
     95 H95        22.7324    0.2584   -5.6265 H         1 UNK         0.0784 
     96 H96        21.7939   -0.5832   -7.7873 H         1 UNK         0.0793 
     97 H97        22.0636   -2.2414   -7.2686 H         1 UNK         0.0793 
     98 H98        20.9118   -1.2176   -6.4096 H         1 UNK         0.0793 
     99 H99        22.4004   -2.3624   -4.7575 H         1 UNK         0.3024 
    100 H100       23.1006   -1.9891   -1.8924 H         1 UNK         0.1171 
    101 H101       23.1149   -4.5071   -2.1792 H         1 UNK         0.0786 
    102 H102       22.1169   -3.6945   -3.3614 H         1 UNK         0.0786 
    103 H103       23.7086   -4.2981   -3.8216 H         1 UNK         0.0786 
    104 H104       25.0227   -2.4491   -0.8965 H         1 UNK         0.2977 
    105 H105       25.6602    1.0117   -4.3823 H         1 UNK         0.3127 
    106 H106       25.9846    3.7481   -3.9182 H         1 UNK         0.0770 
    107 H107       23.5922    2.3609   -5.2340 H         1 UNK         0.0814 
    108 H108       23.5715    3.9114   -4.4121 H         1 UNK         0.0814 
    109 H109       23.8828    2.4445   -3.4959 H         1 UNK         0.0814 
    110 H110       25.4564    2.1074   -7.0787 H         1 UNK         0.2983 
    111 H111       25.7483    4.6105   -8.5934 H         1 UNK         0.0947 
    112 H112       25.5322    1.6917   -9.5172 H         1 UNK         0.0806 
    113 H113       25.3846    3.1165  -10.5364 H         1 UNK         0.0806 
    114 H114       24.1725    2.7925   -9.3080 H         1 UNK         0.0806 
    115 H115       27.9362    2.5695   -7.0978 H         1 UNK         0.3000 
    116 H116       30.0619    2.0807   -7.1516 H         1 UNK         0.0850 
    117 H117       30.3917    4.5536   -7.3652 H         1 UNK         0.0810 
    118 H118       30.4607    4.3934   -9.1209 H         1 UNK         0.0810 
    119 H119       31.6946    3.6497   -8.1177 H         1 UNK         0.0810 
    120 H120       28.2106    1.1568   -9.5173 H         1 UNK         0.3040 
    121 H121       29.7980    0.4455  -11.7258 H         1 UNK         0.0766 
    122 H122       27.9272   -1.1377  -12.2202 H         1 UNK         0.0812 
    123 H123       27.3095    0.4308  -11.7313 H         1 UNK         0.0812 
    124 H124       27.2926   -0.9199  -10.5963 H         1 UNK         0.0812 
    125 H125       29.7129   -1.0191   -8.5567 H         1 UNK         0.3205 
    126 H126       30.7193   -3.6016   -9.1673 H         1 UNK         0.0754 
    127 H127       31.3812   -3.6022   -6.7427 H         1 UNK         0.0769 
    128 H128       29.7456   -3.0258   -6.9580 H         1 UNK         0.0769 
    129 H129       31.0411   -1.8774   -6.6504 H         1 UNK         0.0769 
    130 H130       32.4436   -0.4808   -9.0289 H         1 UNK         0.2981 
    131 H131       34.8983   -1.7262   -9.8794 H         1 UNK         0.0541 
    132 H132       32.9930    1.1499   -9.9126 H         1 UNK         0.3459 
    133 H133       34.2879    2.1025  -10.5843 H         1 UNK         0.3459 
    134 H134       35.3632   -2.3358   -7.6719 H         1 UNK         0.0612 
    135 H135       36.2914   -0.8949   -7.8718 H         1 UNK         0.0612 
    136 H136       33.5493   -2.7485   -6.1920 H         1 UNK         0.0624 
    137 H137       34.8621   -2.5057   -5.0699 H         1 UNK         0.0624 
@<TRIPOS>BOND
     1    1    2 1    
     2    1   72 1    
     3    1   73 1    
     4    1   74 1    
     5    2    3 2    
     6    2    4 am   BACKBONE|DICT|INTERRES
     7    4    5 1    
     8    4   75 1    
     9    5    6 1    
    10    5   35 1    
    11    5   76 1    
    12    6    7 1    
    13    6   77 1    
    14    6   78 1    
    15    7    8 1    
    16    8    9 1    
    17    8   79 1    
    18    8   80 1    
    19    9   10 ar   
    20    9   14 ar   
    21   10   11 ar   
    22   10   81 1    
    23   11   12 ar   
    24   11   71 1    
    25   12   13 ar   
    26   12   82 1    
    27   13   14 ar   
    28   13   15 1    
    29   14   83 1    
    30   15   16 1    
    31   15   84 1    
    32   15   85 1    
    33   16   17 1    
    34   17   18 1    
    35   17   86 1    
    36   17   87 1    
    37   18   19 1    
    38   18   37 1    
    39   18   88 1    
    40   19   20 am   BACKBONE|DICT|INTERRES
    41   19   89 1    
    42   20   21 2    
    43   20   22 1    
    44   22   23 1    
    45   22   24 1    
    46   22   90 1    
    47   23   91 1    
    48   23   92 1    
    49   23   93 1    
    50   24   25 am   BACKBONE|DICT|INTERRES
    51   24   94 1    
    52   25   26 2    
    53   25   27 1    
    54   27   28 1    
    55   27   29 1    
    56   27   95 1    
    57   28   96 1    
    58   28   97 1    
    59   28   98 1    
    60   29   30 am   BACKBONE|DICT|INTERRES
    61   29   99 1    
    62   30   31 2    
    63   30   32 1    
    64   32   33 1    
    65   32   34 1    
    66   32  100 1    
    67   33  101 1    
    68   33  102 1    
    69   33  103 1    
    70   34   35 am   BACKBONE|DICT|INTERRES
    71   34  104 1    
    72   35   36 2    
    73   37   38 2    
    74   37   39 am   BACKBONE|DICT|INTERRES
    75   39   40 1    
    76   39  105 1    
    77   40   41 1    
    78   40   42 1    
    79   40  106 1    
    80   41  107 1    
    81   41  108 1    
    82   41  109 1    
    83   42   43 2    
    84   42   44 am   BACKBONE|DICT|INTERRES
    85   44   45 1    
    86   44  110 1    
    87   45   46 1    
    88   45   47 1    
    89   45  111 1    
    90   46  112 1    
    91   46  113 1    
    92   46  114 1    
    93   47   48 2    
    94   47   49 am   BACKBONE|DICT|INTERRES
    95   49   50 1    
    96   49  115 1    
    97   50   51 1    
    98   50   52 1    
    99   50  116 1    
   100   51  117 1    
   101   51  118 1    
   102   51  119 1    
   103   52   53 2    
   104   52   54 am   BACKBONE|DICT|INTERRES
   105   54   55 1    
   106   54  120 1    
   107   55   56 1    
   108   55   57 1    
   109   55  121 1    
   110   56  122 1    
   111   56  123 1    
   112   56  124 1    
   113   57   58 2    
   114   57   59 am   BACKBONE|DICT|INTERRES
   115   59   60 1    
   116   59  125 1    
   117   60   61 1    
   118   60   62 1    
   119   60  126 1    
   120   61  127 1    
   121   61  128 1    
   122   61  129 1    
   123   62   63 2    
   124   62   64 am   BACKBONE|DICT|INTERRES
   125   64   65 1    
   126   64  130 1    
   127   65   66 1    
   128   65   69 1    
   129   65  131 1    
   130   66   67 am   BACKBONE|DICT|INTERRES
   131   66   68 2    
   132   67  132 1    
   133   67  133 1    
   134   69   70 1    
   135   69  134 1    
   136   69  135 1    
   137   70   71 1    
   138   71  136 1    
   139   71  137 1    
@<TRIPOS>SUBSTRUCTURE
     1 UNK         1 GROUP             0       ****    0 ROOT    
