@<TRIPOS>MOLECULE
3R137
137   139    1
SMALL
USER_CHARGES


@<TRIPOS>ATOM
      1 CA         29.9300   -5.2934   -6.1376 C.3       0 UNK        -0.2020 
      2 C          28.7141   -5.9074   -5.4592 C.2       0 UNK         0.4855 
      3 O          28.1754   -6.8998   -5.9490 O.2       0 UNK        -0.5197 
      4 N          28.2769   -5.3254   -4.3345 N.am      1 UNK        -0.4892 
      5 CA         27.0926   -5.7444   -3.5720 C.3       1 UNK         0.0835 
      6 C6         27.0744   -5.1204   -2.1499 C.3       12 UNK        -0.0855 
      7 S7         27.2864   -3.2980   -2.1389 S.3       12 UNK        -0.2931 
      8 C8         28.8996   -3.1133   -1.3109 C.3       12 UNK         0.0378 
      9 C9         29.7211   -2.0007   -1.9430 C.ar      12 UNK        -0.0802 
     10 C10        30.5384   -2.2808   -3.0421 C.ar      12 UNK        -0.0944 
     11 C11        31.3103   -1.2746   -3.6270 C.ar      12 UNK        -0.0787 
     12 C12        31.2639    0.0209   -3.1023 C.ar      12 UNK        -0.0862 
     13 C13        30.4739    0.3084   -1.9861 C.ar      12 UNK        -0.0733 
     14 C14        29.6932   -0.7043   -1.4172 C.ar      12 UNK        -0.0832 
     15 C15        30.5096    1.6972   -1.3632 C.3       12 UNK         0.0240 
     16 S16        29.0200    2.6703   -1.7358 S.3       12 UNK        -0.2522 
     17 C17        29.2348    3.0701   -3.5067 C.3       12 UNK        -0.0967 
     18 CA         28.3628    2.1841   -4.4306 C.3       5 UNK         0.0660 
     19 N          26.9677    2.1129   -3.9794 N.am      5 UNK        -0.4015 
     20 C          26.0644    1.2418   -4.4389 C.2       4 UNK         0.4946 
     21 O          26.2719    0.4570   -5.3679 O.2       4 UNK        -0.5353 
     22 CA         24.6936    1.2556   -3.7635 C.3       4 UNK         0.0277 
     23 CB         23.6610    2.0296   -4.6017 C.3       4 UNK        -0.1981 
     24 N          24.2907   -0.1336   -3.6013 N.am      4 UNK        -0.4209 
     25 C          23.4413   -0.6059   -2.6834 C.2       3 UNK         0.4942 
     26 O          22.8013    0.1161   -1.9168 O.2       3 UNK        -0.5208 
     27 CA         23.3213   -2.1371   -2.5520 C.3       3 UNK         0.0250 
     28 CB         21.8627   -2.6043   -2.3578 C.3       3 UNK        -0.1990 
     29 N          24.0026   -2.8893   -3.6158 N.am      3 UNK        -0.4232 
     30 C          23.6435   -3.0342   -4.9018 C.2       2 UNK         0.4993 
     31 O          22.6307   -2.5353   -5.3918 O.2       2 UNK        -0.5286 
     32 CA         24.5886   -3.8468   -5.8130 C.3       2 UNK         0.0209 
     33 CB         25.0777   -2.9879   -6.9891 C.3       2 UNK        -0.1931 
     34 N          25.7626   -4.3776   -5.1145 N.am      2 UNK        -0.4546 
     35 C          25.7710   -5.4517   -4.3133 C.2       1 UNK         0.5154 
     36 O          24.7887   -6.1692   -4.1217 O.2       1 UNK        -0.5181 
     37 C          28.4811    2.6379   -5.9006 C.2       5 UNK         0.5014 
     38 O          29.3797    2.1819   -6.6094 O.2       5 UNK        -0.5248 
     39 N          27.5551    3.5049   -6.3382 N.am      6 UNK        -0.4434 
     40 CA         27.4257    3.9580   -7.7241 C.3       6 UNK         0.0363 
     41 CB         26.5063    5.1880   -7.7824 C.3       6 UNK        -0.1936 
     42 C          26.9077    2.8507   -8.6561 C.2       6 UNK         0.5081 
     43 O          27.3941    2.7352   -9.7801 O.2       6 UNK        -0.5248 
     44 N          25.9666    2.0275   -8.1684 N.am      7 UNK        -0.4718 
     45 CA         25.4544    0.8508   -8.8817 C.3       7 UNK         0.0273 
     46 CB         24.1713    0.3441   -8.2054 C.3       7 UNK        -0.1935 
     47 C          26.5092   -0.2644   -8.9797 C.2       7 UNK         0.5018 
     48 O          26.5805   -0.9472  -10.0008 O.2       7 UNK        -0.5186 
     49 N          27.3514   -0.3758   -7.9429 N.am      8 UNK        -0.4240 
     50 CA         28.5564   -1.2069   -7.9053 C.3       8 UNK         0.0235 
     51 CB         28.9143   -1.4917   -6.4363 C.3       8 UNK        -0.2000 
     52 C          29.7537   -0.5916   -8.6655 C.2       8 UNK         0.4941 
     53 O          30.8533   -1.1408   -8.5816 O.2       8 UNK        -0.5273 
     54 N          29.5410    0.5312   -9.3736 N.am      9 UNK        -0.4262 
     55 CA         30.4795    1.2425  -10.2509 C.3       9 UNK         0.0264 
     56 CB         30.7368    0.4152  -11.5282 C.3       9 UNK        -0.1955 
     57 C          31.7830    1.6727   -9.5530 C.2       9 UNK         0.5031 
     58 O          32.8539    1.5979  -10.1607 O.2       9 UNK        -0.5390 
     59 N          31.6819    2.0641   -8.2720 N.am      10 UNK        -0.4204 
     60 CA         32.7914    2.3971   -7.3662 C.3       10 UNK         0.0237 
     61 CB         33.4494    3.7307   -7.7789 C.3       10 UNK        -0.1985 
     62 C          33.8141    1.2505   -7.2010 C.2       10 UNK         0.4970 
     63 O          34.9853    1.5095   -6.9202 O.2       10 UNK        -0.4914 
     64 N          33.3409    0.0110   -7.3869 N.am      11 UNK        -0.4285 
     65 CA         34.0889   -1.2526   -7.3613 C.3       11 UNK         0.1007 
     66 C          34.9777   -1.4767   -8.6227 C.2       11 UNK         0.5703 
     67 N          34.8342   -0.6986   -9.6911 N.am      11 UNK        -0.7361 
     68 O          35.7957   -2.3937   -8.6496 O.2       11 UNK        -0.4986 
     69 C69        34.8560   -1.5134   -6.0288 C.3       12 UNK        -0.0947 
     70 S70        33.9505   -1.2872   -4.4509 S.3       12 UNK        -0.2240 
     71 C71        32.1896   -1.5779   -4.8295 C.3       12 UNK         0.0194 
     72 H72        30.3906   -4.5177   -5.5282 H         1 UNK         0.0906 
     73 H73        30.6806   -6.0601   -6.3279 H         1 UNK         0.0906 
     74 H74        29.6443   -4.8526   -7.0925 H         1 UNK         0.0906 
     75 H75        28.7469   -4.5094   -3.9705 H         1 UNK         0.3140 
     76 H76        27.1424   -6.8298   -3.4569 H         1 UNK         0.1085 
     77 H77        27.8536   -5.5870   -1.5463 H         1 UNK         0.0836 
     78 H78        26.1433   -5.3626   -1.6328 H         1 UNK         0.0836 
     79 H79        29.4689   -4.0424   -1.3604 H         1 UNK         0.0731 
     80 H80        28.7363   -2.9150   -0.2505 H         1 UNK         0.0731 
     81 H81        30.5784   -3.2852   -3.4375 H         1 UNK         0.1312 
     82 H82        31.8696    0.7976   -3.5489 H         1 UNK         0.1406 
     83 H83        29.0763   -0.4850   -0.5561 H         1 UNK         0.1631 
     84 H84        31.3946    2.2481   -1.6855 H         1 UNK         0.0717 
     85 H85        30.5967    1.5984   -0.2802 H         1 UNK         0.0717 
     86 H86        28.9813    4.1244   -3.6354 H         1 UNK         0.0934 
     87 H87        30.2888    2.9808   -3.7770 H         1 UNK         0.0934 
     88 H88        28.7605    1.1685   -4.3806 H         1 UNK         0.0739 
     89 H89        26.7282    2.7087   -3.1997 H         1 UNK         0.3093 
     90 H90        24.7852    1.7186   -2.7785 H         1 UNK         0.0818 
     91 H91        23.9775    3.0607   -4.7627 H         1 UNK         0.0819 
     92 H92        23.5103    1.5742   -5.5799 H         1 UNK         0.0819 
     93 H93        22.6932    2.0639   -4.1012 H         1 UNK         0.0819 
     94 H94        24.7991   -0.7822   -4.1885 H         1 UNK         0.3041 
     95 H95        23.8605   -2.3885   -1.6373 H         1 UNK         0.0784 
     96 H96        21.4331   -2.1747   -1.4521 H         1 UNK         0.0793 
     97 H97        21.2242   -2.3036   -3.1887 H         1 UNK         0.0793 
     98 H98        21.8019   -3.6882   -2.2606 H         1 UNK         0.0793 
     99 H99        24.8743   -3.3194   -3.3372 H         1 UNK         0.3024 
    100 H100       24.0106   -4.6839   -6.2114 H         1 UNK         0.1171 
    101 H101       25.6074   -2.1028   -6.6372 H         1 UNK         0.0786 
    102 H102       25.7485   -3.5448   -7.6436 H         1 UNK         0.0786 
    103 H103       24.2408   -2.6492   -7.6004 H         1 UNK         0.0786 
    104 H104       26.6212   -3.8542   -5.2031 H         1 UNK         0.2977 
    105 H105       26.8655    3.8406   -5.6818 H         1 UNK         0.3127 
    106 H106       28.4154    4.2546   -8.0792 H         1 UNK         0.0770 
    107 H107       25.5009    4.9626   -7.4243 H         1 UNK         0.0814 
    108 H108       26.4125    5.5548   -8.8056 H         1 UNK         0.0814 
    109 H109       26.9016    6.0076   -7.1820 H         1 UNK         0.0814 
    110 H110       25.6474    2.1594   -7.2202 H         1 UNK         0.2983 
    111 H111       25.2024    1.1555   -9.9001 H         1 UNK         0.0947 
    112 H112       23.7438   -0.4897   -8.7637 H         1 UNK         0.0806 
    113 H113       23.4110    1.1238   -8.1606 H         1 UNK         0.0806 
    114 H114       24.3555   -0.0063   -7.1899 H         1 UNK         0.0806 
    115 H115       27.1551    0.1722   -7.1098 H         1 UNK         0.3000 
    116 H116       28.3297   -2.1597   -8.3879 H         1 UNK         0.0850 
    117 H117       29.2338   -0.5870   -5.9196 H         1 UNK         0.0810 
    118 H118       29.7291   -2.2116   -6.3674 H         1 UNK         0.0810 
    119 H119       28.0686   -1.9064   -5.8882 H         1 UNK         0.0810 
    120 H120       28.6143    0.9371   -9.3380 H         1 UNK         0.3040 
    121 H121       29.9808    2.1655  -10.5495 H         1 UNK         0.0766 
    122 H122       31.2785   -0.5057  -11.3084 H         1 UNK         0.0812 
    123 H123       29.8025    0.1458  -12.0208 H         1 UNK         0.0812 
    124 H124       31.3305    0.9786  -12.2491 H         1 UNK         0.0812 
    125 H125       30.7595    2.0621   -7.8349 H         1 UNK         0.3205 
    126 H126       32.3421    2.5400   -6.3823 H         1 UNK         0.0754 
    127 H127       34.1787    4.0554   -7.0358 H         1 UNK         0.0769 
    128 H128       32.7089    4.5252   -7.8719 H         1 UNK         0.0769 
    129 H129       33.9721    3.6453   -8.7321 H         1 UNK         0.0769 
    130 H130       32.3779   -0.0935   -7.6878 H         1 UNK         0.2981 
    131 H131       33.3246   -2.0258   -7.4401 H         1 UNK         0.0541 
    132 H132       35.4101   -0.8663  -10.5002 H         1 UNK         0.3459 
    133 H133       34.1582    0.0572   -9.7027 H         1 UNK         0.3459 
    134 H134       35.7429   -0.8797   -5.9816 H         1 UNK         0.0612 
    135 H135       35.2323   -2.5377   -6.0231 H         1 UNK         0.0612 
    136 H136       31.8431   -0.9418   -5.6391 H         1 UNK         0.0624 
    137 H137       32.0645   -2.6088   -5.1629 H         1 UNK         0.0624 
@<TRIPOS>BOND
     1    1    2 1    
     2    1   72 1    
     3    1   73 1    
     4    1   74 1    
     5    2    3 2    
     6    2    4 am   BACKBONE|DICT|INTERRES
     7    4    5 1    
     8    4   75 1    
     9    5    6 1    
    10    5   35 1    
    11    5   76 1    
    12    6    7 1    
    13    6   77 1    
    14    6   78 1    
    15    7    8 1    
    16    8    9 1    
    17    8   79 1    
    18    8   80 1    
    19    9   10 ar   
    20    9   14 ar   
    21   10   11 ar   
    22   10   81 1    
    23   11   12 ar   
    24   11   71 1    
    25   12   13 ar   
    26   12   82 1    
    27   13   14 ar   
    28   13   15 1    
    29   14   83 1    
    30   15   16 1    
    31   15   84 1    
    32   15   85 1    
    33   16   17 1    
    34   17   18 1    
    35   17   86 1    
    36   17   87 1    
    37   18   19 1    
    38   18   37 1    
    39   18   88 1    
    40   19   20 am   BACKBONE|DICT|INTERRES
    41   19   89 1    
    42   20   21 2    
    43   20   22 1    
    44   22   23 1    
    45   22   24 1    
    46   22   90 1    
    47   23   91 1    
    48   23   92 1    
    49   23   93 1    
    50   24   25 am   BACKBONE|DICT|INTERRES
    51   24   94 1    
    52   25   26 2    
    53   25   27 1    
    54   27   28 1    
    55   27   29 1    
    56   27   95 1    
    57   28   96 1    
    58   28   97 1    
    59   28   98 1    
    60   29   30 am   BACKBONE|DICT|INTERRES
    61   29   99 1    
    62   30   31 2    
    63   30   32 1    
    64   32   33 1    
    65   32   34 1    
    66   32  100 1    
    67   33  101 1    
    68   33  102 1    
    69   33  103 1    
    70   34   35 am   BACKBONE|DICT|INTERRES
    71   34  104 1    
    72   35   36 2    
    73   37   38 2    
    74   37   39 am   BACKBONE|DICT|INTERRES
    75   39   40 1    
    76   39  105 1    
    77   40   41 1    
    78   40   42 1    
    79   40  106 1    
    80   41  107 1    
    81   41  108 1    
    82   41  109 1    
    83   42   43 2    
    84   42   44 am   BACKBONE|DICT|INTERRES
    85   44   45 1    
    86   44  110 1    
    87   45   46 1    
    88   45   47 1    
    89   45  111 1    
    90   46  112 1    
    91   46  113 1    
    92   46  114 1    
    93   47   48 2    
    94   47   49 am   BACKBONE|DICT|INTERRES
    95   49   50 1    
    96   49  115 1    
    97   50   51 1    
    98   50   52 1    
    99   50  116 1    
   100   51  117 1    
   101   51  118 1    
   102   51  119 1    
   103   52   53 2    
   104   52   54 am   BACKBONE|DICT|INTERRES
   105   54   55 1    
   106   54  120 1    
   107   55   56 1    
   108   55   57 1    
   109   55  121 1    
   110   56  122 1    
   111   56  123 1    
   112   56  124 1    
   113   57   58 2    
   114   57   59 am   BACKBONE|DICT|INTERRES
   115   59   60 1    
   116   59  125 1    
   117   60   61 1    
   118   60   62 1    
   119   60  126 1    
   120   61  127 1    
   121   61  128 1    
   122   61  129 1    
   123   62   63 2    
   124   62   64 am   BACKBONE|DICT|INTERRES
   125   64   65 1    
   126   64  130 1    
   127   65   66 1    
   128   65   69 1    
   129   65  131 1    
   130   66   67 am   BACKBONE|DICT|INTERRES
   131   66   68 2    
   132   67  132 1    
   133   67  133 1    
   134   69   70 1    
   135   69  134 1    
   136   69  135 1    
   137   70   71 1    
   138   71  136 1    
   139   71  137 1    
@<TRIPOS>SUBSTRUCTURE
     1 UNK         1 GROUP             0       ****    0 ROOT    
