@<TRIPOS>MOLECULE
3R137
137   139    1
SMALL
USER_CHARGES


@<TRIPOS>ATOM
      1 CA         22.9256   -4.8384   -3.2440 C.3       0 UNK        -0.2020 
      2 C          23.7873   -4.1153   -2.2209 C.2       0 UNK         0.4855 
      3 O          23.3233   -3.1602   -1.5971 O.2       0 UNK        -0.5197 
      4 N          25.0432   -4.5511   -2.0548 N.am      1 UNK        -0.4892 
      5 CA         26.0462   -3.9622   -1.1599 C.3       1 UNK         0.0835 
      6 C6         27.3557   -4.7960   -1.1146 C.3       12 UNK        -0.0855 
      7 S7         28.0225   -5.2843   -2.7504 S.3       12 UNK        -0.2931 
      8 C8         29.7942   -5.4864   -2.3822 C.3       12 UNK         0.0378 
      9 C9         30.6472   -4.3719   -2.9768 C.ar      12 UNK        -0.0802 
     10 C10        31.5195   -4.6497   -4.0350 C.ar      12 UNK        -0.0944 
     11 C11        32.3705   -3.6600   -4.5359 C.ar      12 UNK        -0.0787 
     12 C12        32.3343   -2.3779   -3.9815 C.ar      12 UNK        -0.0862 
     13 C13        31.4572   -2.0809   -2.9343 C.ar      12 UNK        -0.0733 
     14 C14        30.6143   -3.0817   -2.4362 C.ar      12 UNK        -0.0832 
     15 C15        31.4653   -0.6912   -2.3113 C.3       12 UNK         0.0240 
     16 S16        30.8187    0.5843   -3.4397 S.3       12 UNK        -0.2522 
     17 C17        29.0463    0.1663   -3.4918 C.3       12 UNK        -0.0967 
     18 CA         28.5083    0.0191   -4.9379 C.3       5 UNK         0.0660 
     19 N          27.3550   -0.8834   -4.9839 N.am      5 UNK        -0.4015 
     20 C          26.7031   -1.2775   -6.0862 C.2       4 UNK         0.4946 
     21 O          27.0307   -0.9724   -7.2299 O.2       4 UNK        -0.5353 
     22 CA         25.4264   -2.1040   -5.8754 C.3       4 UNK         0.0277 
     23 CB         25.7560   -3.5843   -5.6285 C.3       4 UNK        -0.1981 
     24 N          24.6167   -1.5718   -4.7779 N.am      4 UNK        -0.4209 
     25 C          23.9600   -0.4034   -4.8288 C.2       3 UNK         0.4942 
     26 O          23.9142    0.3132   -5.8283 O.2       3 UNK        -0.5208 
     27 CA         23.2788    0.0668   -3.5337 C.3       3 UNK         0.0250 
     28 CB         21.8786   -0.5515   -3.3974 C.3       3 UNK        -0.1990 
     29 N          24.0792   -0.2336   -2.3431 N.am      3 UNK        -0.4232 
     30 C          25.2347    0.3836   -2.0505 C.2       2 UNK         0.4993 
     31 O          25.7185    1.2831   -2.7369 O.2       2 UNK        -0.5286 
     32 CA         26.0145   -0.1160   -0.8202 C.3       2 UNK         0.0209 
     33 CB         25.5471    0.6162    0.4474 C.3       2 UNK        -0.1931 
     34 N          25.9271   -1.5655   -0.6113 N.am      2 UNK        -0.4546 
     35 C          26.3063   -2.4841   -1.5105 C.2       1 UNK         0.5154 
     36 O          26.7889   -2.1957   -2.6050 O.2       1 UNK        -0.5181 
     37 C          28.1985    1.3973   -5.5618 C.2       5 UNK         0.5014 
     38 O          29.0195    1.9225   -6.3126 O.2       5 UNK        -0.5248 
     39 N          27.0178    1.9546   -5.2520 N.am      6 UNK        -0.4434 
     40 CA         26.5214    3.2062   -5.8259 C.3       6 UNK         0.0363 
     41 CB         25.2851    3.6794   -5.0448 C.3       6 UNK        -0.1936 
     42 C          26.2055    3.0928   -7.3272 C.2       6 UNK         0.5081 
     43 O          26.5300    4.0122   -8.0794 O.2       6 UNK        -0.5248 
     44 N          25.5749    1.9820   -7.7355 N.am      7 UNK        -0.4718 
     45 CA         25.2188    1.6980   -9.1274 C.3       7 UNK         0.0273 
     46 CB         24.2248    0.5261   -9.1796 C.3       7 UNK        -0.1935 
     47 C          26.4485    1.4182  -10.0064 C.2       7 UNK         0.5018 
     48 O          26.6165    2.0642  -11.0417 O.2       7 UNK        -0.5186 
     49 N          27.2911    0.4731   -9.5753 N.am      8 UNK        -0.4240 
     50 CA         28.5273    0.0780  -10.2427 C.3       8 UNK         0.0235 
     51 CB         28.6631   -1.4558  -10.1872 C.3       8 UNK        -0.2000 
     52 C          29.7058    0.7958   -9.5733 C.2       8 UNK         0.4941 
     53 O          30.5258    0.1575   -8.9131 O.2       8 UNK        -0.5273 
     54 N          29.7848    2.1185   -9.7751 N.am      9 UNK        -0.4262 
     55 CA         30.7965    3.0141   -9.1941 C.3       9 UNK         0.0264 
     56 CB         30.4827    4.4590   -9.6152 C.3       9 UNK        -0.1955 
     57 C          32.2617    2.6577   -9.5235 C.2       9 UNK         0.5031 
     58 O          33.1651    3.1096   -8.8188 O.2       9 UNK        -0.5390 
     59 N          32.4733    1.8521  -10.5726 N.am      10 UNK        -0.4204 
     60 CA         33.7644    1.2887  -10.9633 C.3       10 UNK         0.0237 
     61 CB         33.6663    0.7912  -12.4156 C.3       10 UNK        -0.1985 
     62 C          34.2660    0.1580  -10.0410 C.2       10 UNK         0.4970 
     63 O          35.4488   -0.1751  -10.1292 O.2       10 UNK        -0.4914 
     64 N          33.3939   -0.4322   -9.2058 N.am      11 UNK        -0.4285 
     65 CA         33.7501   -1.5015   -8.2583 C.3       11 UNK         0.1007 
     66 C          34.7557   -1.0106   -7.1800 C.2       11 UNK         0.5703 
     67 N          35.8980   -1.6702   -7.0388 N.am      11 UNK        -0.7361 
     68 O          34.4913   -0.0568   -6.4515 O.2       11 UNK        -0.4986 
     69 C69        32.4878   -2.1449   -7.6149 C.3       12 UNK        -0.0947 
     70 S70        32.6734   -3.9330   -7.3016 S.3       12 UNK        -0.2240 
     71 C71        33.3792   -3.9975   -5.6241 C.3       12 UNK         0.0194 
     72 H72        22.0299   -5.2338   -2.7657 H         1 UNK         0.0906 
     73 H73        22.6160   -4.1491   -4.0291 H         1 UNK         0.0906 
     74 H74        23.4556   -5.6689   -3.7101 H         1 UNK         0.0906 
     75 H75        25.3878   -5.3142   -2.6210 H         1 UNK         0.3140 
     76 H76        25.6179   -3.9887   -0.1555 H         1 UNK         0.1085 
     77 H77        27.1712   -5.7158   -0.5574 H         1 UNK         0.0836 
     78 H78        28.1215   -4.2642   -0.5468 H         1 UNK         0.0836 
     79 H79        30.1113   -6.4540   -2.7743 H         1 UNK         0.0731 
     80 H80        29.9600   -5.5381   -1.3054 H         1 UNK         0.0731 
     81 H81        31.5604   -5.6467   -4.4525 H         1 UNK         0.1312 
     82 H82        32.9994   -1.6102   -4.3544 H         1 UNK         0.1406 
     83 H83        29.9437   -2.8647   -1.6163 H         1 UNK         0.1631 
     84 H84        32.4897   -0.4305   -2.0417 H         1 UNK         0.0717 
     85 H85        30.8936   -0.6737   -1.3819 H         1 UNK         0.0717 
     86 H86        28.9094   -0.7691   -2.9501 H         1 UNK         0.0934 
     87 H87        28.4866    0.9130   -2.9255 H         1 UNK         0.0934 
     88 H88        29.2790   -0.4526   -5.5523 H         1 UNK         0.0739 
     89 H89        27.0479   -1.2629   -4.0888 H         1 UNK         0.3093 
     90 H90        24.8355   -2.0407   -6.7917 H         1 UNK         0.0818 
     91 H91        26.3477   -3.9912   -6.4496 H         1 UNK         0.0819 
     92 H92        26.3325   -3.7268   -4.7150 H         1 UNK         0.0819 
     93 H93        24.8509   -4.1862   -5.5544 H         1 UNK         0.0819 
     94 H94        24.6622   -2.0608   -3.8958 H         1 UNK         0.3041 
     95 H95        23.1628    1.1511   -3.5971 H         1 UNK         0.0784 
     96 H96        21.2551   -0.2921   -4.2542 H         1 UNK         0.0793 
     97 H97        21.9161   -1.6395   -3.3413 H         1 UNK         0.0793 
     98 H98        21.3694   -0.1873   -2.5050 H         1 UNK         0.0793 
     99 H99        23.7708   -1.0052   -1.7618 H         1 UNK         0.3024 
    100 H100       27.0661    0.1274   -0.9857 H         1 UNK         0.1171 
    101 H101       26.1590    0.3492    1.3092 H         1 UNK         0.0786 
    102 H102       25.6218    1.6976    0.3227 H         1 UNK         0.0786 
    103 H103       24.5081    0.3869    0.6876 H         1 UNK         0.0786 
    104 H104       25.5031   -1.8726    0.2527 H         1 UNK         0.2977 
    105 H105       26.4321    1.5105   -4.5498 H         1 UNK         0.3127 
    106 H106       27.3036    3.9594   -5.7089 H         1 UNK         0.0770 
    107 H107       24.4727    2.9538   -5.0956 H         1 UNK         0.0814 
    108 H108       24.9078    4.6216   -5.4443 H         1 UNK         0.0814 
    109 H109       25.5201    3.8438   -3.9930 H         1 UNK         0.0814 
    110 H110       25.2971    1.2942   -7.0427 H         1 UNK         0.2983 
    111 H111       24.7188    2.5804   -9.5329 H         1 UNK         0.0947 
    112 H112       24.6458   -0.3828   -8.7485 H         1 UNK         0.0806 
    113 H113       23.9399    0.2999  -10.2080 H         1 UNK         0.0806 
    114 H114       23.3106    0.7593   -8.6333 H         1 UNK         0.0806 
    115 H115       27.1108    0.0159   -8.6795 H         1 UNK         0.3000 
    116 H116       28.5058    0.3720  -11.2943 H         1 UNK         0.0850 
    117 H117       29.5709   -1.7853  -10.6940 H         1 UNK         0.0810 
    118 H118       27.8209   -1.9458  -10.6755 H         1 UNK         0.0810 
    119 H119       28.7131   -1.8222   -9.1609 H         1 UNK         0.0810 
    120 H120       29.0522    2.5574  -10.3169 H         1 UNK         0.3040 
    121 H121       30.6975    2.9478   -8.1093 H         1 UNK         0.0766 
    122 H122       29.4882    4.7603   -9.2843 H         1 UNK         0.0812 
    123 H123       30.5312    4.5835  -10.6977 H         1 UNK         0.0812 
    124 H124       31.1938    5.1588   -9.1737 H         1 UNK         0.0812 
    125 H125       31.6662    1.5392  -11.0914 H         1 UNK         0.3205 
    126 H126       34.5082    2.0876  -10.9268 H         1 UNK         0.0754 
    127 H127       34.6246    0.4005  -12.7613 H         1 UNK         0.0769 
    128 H128       33.3855    1.5973  -13.0940 H         1 UNK         0.0769 
    129 H129       32.9321   -0.0088  -12.5202 H         1 UNK         0.0769 
    130 H130       32.4336   -0.1023   -9.1602 H         1 UNK         0.2981 
    131 H131       34.2440   -2.2671   -8.8605 H         1 UNK         0.0541 
    132 H132       36.5565   -1.3659   -6.3393 H         1 UNK         0.3459 
    133 H133       36.1266   -2.4482   -7.6375 H         1 UNK         0.3459 
    134 H134       32.1649   -1.6204   -6.7143 H         1 UNK         0.0612 
    135 H135       31.6464   -2.0736   -8.3044 H         1 UNK         0.0612 
    136 H136       33.7615   -5.0053   -5.4557 H         1 UNK         0.0624 
    137 H137       34.2457   -3.3412   -5.5563 H         1 UNK         0.0624 
@<TRIPOS>BOND
     1    1    2 1    
     2    1   72 1    
     3    1   73 1    
     4    1   74 1    
     5    2    3 2    
     6    2    4 am   BACKBONE|DICT|INTERRES
     7    4    5 1    
     8    4   75 1    
     9    5    6 1    
    10    5   35 1    
    11    5   76 1    
    12    6    7 1    
    13    6   77 1    
    14    6   78 1    
    15    7    8 1    
    16    8    9 1    
    17    8   79 1    
    18    8   80 1    
    19    9   10 ar   
    20    9   14 ar   
    21   10   11 ar   
    22   10   81 1    
    23   11   12 ar   
    24   11   71 1    
    25   12   13 ar   
    26   12   82 1    
    27   13   14 ar   
    28   13   15 1    
    29   14   83 1    
    30   15   16 1    
    31   15   84 1    
    32   15   85 1    
    33   16   17 1    
    34   17   18 1    
    35   17   86 1    
    36   17   87 1    
    37   18   19 1    
    38   18   37 1    
    39   18   88 1    
    40   19   20 am   BACKBONE|DICT|INTERRES
    41   19   89 1    
    42   20   21 2    
    43   20   22 1    
    44   22   23 1    
    45   22   24 1    
    46   22   90 1    
    47   23   91 1    
    48   23   92 1    
    49   23   93 1    
    50   24   25 am   BACKBONE|DICT|INTERRES
    51   24   94 1    
    52   25   26 2    
    53   25   27 1    
    54   27   28 1    
    55   27   29 1    
    56   27   95 1    
    57   28   96 1    
    58   28   97 1    
    59   28   98 1    
    60   29   30 am   BACKBONE|DICT|INTERRES
    61   29   99 1    
    62   30   31 2    
    63   30   32 1    
    64   32   33 1    
    65   32   34 1    
    66   32  100 1    
    67   33  101 1    
    68   33  102 1    
    69   33  103 1    
    70   34   35 am   BACKBONE|DICT|INTERRES
    71   34  104 1    
    72   35   36 2    
    73   37   38 2    
    74   37   39 am   BACKBONE|DICT|INTERRES
    75   39   40 1    
    76   39  105 1    
    77   40   41 1    
    78   40   42 1    
    79   40  106 1    
    80   41  107 1    
    81   41  108 1    
    82   41  109 1    
    83   42   43 2    
    84   42   44 am   BACKBONE|DICT|INTERRES
    85   44   45 1    
    86   44  110 1    
    87   45   46 1    
    88   45   47 1    
    89   45  111 1    
    90   46  112 1    
    91   46  113 1    
    92   46  114 1    
    93   47   48 2    
    94   47   49 am   BACKBONE|DICT|INTERRES
    95   49   50 1    
    96   49  115 1    
    97   50   51 1    
    98   50   52 1    
    99   50  116 1    
   100   51  117 1    
   101   51  118 1    
   102   51  119 1    
   103   52   53 2    
   104   52   54 am   BACKBONE|DICT|INTERRES
   105   54   55 1    
   106   54  120 1    
   107   55   56 1    
   108   55   57 1    
   109   55  121 1    
   110   56  122 1    
   111   56  123 1    
   112   56  124 1    
   113   57   58 2    
   114   57   59 am   BACKBONE|DICT|INTERRES
   115   59   60 1    
   116   59  125 1    
   117   60   61 1    
   118   60   62 1    
   119   60  126 1    
   120   61  127 1    
   121   61  128 1    
   122   61  129 1    
   123   62   63 2    
   124   62   64 am   BACKBONE|DICT|INTERRES
   125   64   65 1    
   126   64  130 1    
   127   65   66 1    
   128   65   69 1    
   129   65  131 1    
   130   66   67 am   BACKBONE|DICT|INTERRES
   131   66   68 2    
   132   67  132 1    
   133   67  133 1    
   134   69   70 1    
   135   69  134 1    
   136   69  135 1    
   137   70   71 1    
   138   71  136 1    
   139   71  137 1    
@<TRIPOS>SUBSTRUCTURE
     1 UNK         1 GROUP             0       ****    0 ROOT    
