@<TRIPOS>MOLECULE
3R137
137   139    1
SMALL
USER_CHARGES


@<TRIPOS>ATOM
      1 CA         23.3994   -5.0949   -3.4658 C.3       0 UNK        -0.2020 
      2 C          24.3751   -4.4054   -2.5248 C.2       0 UNK         0.4855 
      3 O          23.9697   -3.5381   -1.7505 O.2       0 UNK        -0.5197 
      4 N          25.6613   -4.7737   -2.5971 N.am      1 UNK        -0.4892 
      5 CA         26.7640   -4.2135   -1.8066 C.3       1 UNK         0.0835 
      6 C6         28.0788   -4.9767   -2.0965 C.3       12 UNK        -0.0855 
      7 S7         29.4005   -4.5970   -0.8975 S.3       12 UNK        -0.2931 
      8 C8         30.8937   -4.8299   -1.9172 C.3       12 UNK         0.0378 
      9 C9         31.0226   -3.7792   -3.0130 C.ar      12 UNK        -0.0802 
     10 C10        30.8913   -4.1371   -4.3579 C.ar      12 UNK        -0.0944 
     11 C11        31.0279   -3.1826   -5.3710 C.ar      12 UNK        -0.0787 
     12 C12        31.2922   -1.8524   -5.0193 C.ar      12 UNK        -0.0862 
     13 C13        31.4228   -1.4775   -3.6769 C.ar      12 UNK        -0.0733 
     14 C14        31.2917   -2.4496   -2.6811 C.ar      12 UNK        -0.0832 
     15 C15        31.7222   -0.0347   -3.2749 C.3       12 UNK         0.0240 
     16 S16        30.7617    1.2319   -4.1742 S.3       12 UNK        -0.2522 
     17 C17        29.0449    0.6332   -4.0402 C.3       12 UNK        -0.0967 
     18 CA         28.3990    0.4437   -5.4391 C.3       5 UNK         0.0660 
     19 N          27.4021   -0.6309   -5.4388 N.am      5 UNK        -0.4015 
     20 C          26.7125   -1.0595   -6.5061 C.2       4 UNK         0.4946 
     21 O          26.8798   -0.6435   -7.6506 O.2       4 UNK        -0.5353 
     22 CA         25.5913   -2.0757   -6.2415 C.3       4 UNK         0.0277 
     23 CB         26.1431   -3.5078   -6.1444 C.3       4 UNK        -0.1981 
     24 N          24.8359   -1.7310   -5.0347 N.am      4 UNK        -0.4209 
     25 C          24.0182   -0.6706   -4.9423 C.2       3 UNK         0.4942 
     26 O          23.7488    0.0677   -5.8887 O.2       3 UNK        -0.5208 
     27 CA         23.4448   -0.3445   -3.5538 C.3       3 UNK         0.0250 
     28 CB         22.1259   -1.0950   -3.3134 C.3       3 UNK        -0.1990 
     29 N          24.3959   -0.6340   -2.4770 N.am      3 UNK        -0.4232 
     30 C          25.5088    0.0847   -2.2603 C.2       2 UNK         0.4993 
     31 O          25.8113    1.0817   -2.9159 O.2       2 UNK        -0.5286 
     32 CA         26.4774   -0.4159   -1.1728 C.3       2 UNK         0.0209 
     33 CB         26.1121    0.1871    0.1924 C.3       2 UNK        -0.1931 
     34 N          26.5352   -1.8773   -1.0645 N.am      2 UNK        -0.4546 
     35 C          26.8984   -2.6972   -2.0607 C.2       1 UNK         0.5154 
     36 O          27.2548   -2.2971   -3.1698 O.2       1 UNK        -0.5181 
     37 C          27.8262    1.7742   -5.9756 C.2       5 UNK         0.5014 
     38 O          28.4552    2.4222   -6.8128 O.2       5 UNK        -0.5248 
     39 N          26.6294    2.1455   -5.4965 N.am      6 UNK        -0.4434 
     40 CA         25.8870    3.3243   -5.9446 C.3       6 UNK         0.0363 
     41 CB         24.6938    3.5653   -5.0062 C.3       6 UNK        -0.1936 
     42 C          25.4162    3.2265   -7.4068 C.2       6 UNK         0.5081 
     43 O          25.4699    4.2279   -8.1215 O.2       6 UNK        -0.5248 
     44 N          24.9512    2.0398   -7.8219 N.am      7 UNK        -0.4718 
     45 CA         24.4595    1.7754   -9.1756 C.3       7 UNK         0.0273 
     46 CB         23.6465    0.4706   -9.1837 C.3       7 UNK        -0.1935 
     47 C          25.5769    1.7223  -10.2310 C.2       7 UNK         0.5018 
     48 O          25.4096    2.2987  -11.3071 O.2       7 UNK        -0.5186 
     49 N          26.6701    1.0138   -9.9208 N.am      8 UNK        -0.4240 
     50 CA         27.8112    0.8040  -10.8090 C.3       8 UNK         0.0235 
     51 CB         28.2908   -0.6584  -10.6833 C.3       8 UNK        -0.2000 
     52 C          28.9084    1.8424  -10.5221 C.2       8 UNK         0.4941 
     53 O          28.8061    2.9770  -10.9917 O.2       8 UNK        -0.5273 
     54 N          29.9512    1.4322   -9.7950 N.am      9 UNK        -0.4262 
     55 CA         31.1408    2.2028   -9.4487 C.3       9 UNK         0.0264 
     56 CB         32.0924    2.2728  -10.6625 C.3       9 UNK        -0.1955 
     57 C          31.7948    1.5313   -8.2314 C.2       9 UNK         0.5031 
     58 O          31.2162    0.5989   -7.6742 O.2       9 UNK        -0.5390 
     59 N          32.9950    1.9926   -7.8524 N.am      10 UNK        -0.4204 
     60 CA         33.7680    1.5115   -6.6983 C.3       10 UNK         0.0237 
     61 CB         34.9975    2.4164   -6.5110 C.3       10 UNK        -0.1985 
     62 C          34.1970    0.0292   -6.7461 C.2       10 UNK         0.4970 
     63 O          34.5308   -0.5200   -5.6960 O.2       10 UNK        -0.4914 
     64 N          34.2026   -0.5774   -7.9420 N.am      11 UNK        -0.4285 
     65 CA         34.5307   -1.9928   -8.2062 C.3       11 UNK         0.1007 
     66 C          36.0184   -2.3819   -7.9421 C.2       11 UNK         0.5703 
     67 N          36.9408   -1.4326   -7.8319 N.am      11 UNK        -0.7361 
     68 O          36.3551   -3.5620   -7.8738 O.2       11 UNK        -0.4986 
     69 C69        33.5238   -2.9907   -7.5572 C.3       12 UNK        -0.0947 
     70 S70        31.7993   -2.6736   -8.0632 S.3       12 UNK        -0.2240 
     71 C71        30.8513   -3.6239   -6.8253 C.3       12 UNK         0.0194 
     72 H72        22.5381   -5.4629   -2.9088 H         1 UNK         0.0906 
     73 H73        23.0435   -4.3936   -4.2199 H         1 UNK         0.0906 
     74 H74        23.8561   -5.9415   -3.9780 H         1 UNK         0.0906 
     75 H75        25.9281   -5.4823   -3.2657 H         1 UNK         0.3140 
     76 H76        26.5098   -4.3680   -0.7556 H         1 UNK         0.1085 
     77 H77        27.9039   -6.0527   -2.0470 H         1 UNK         0.0836 
     78 H78        28.4180   -4.7759   -3.1140 H         1 UNK         0.0836 
     79 H79        31.7716   -4.7793   -1.2716 H         1 UNK         0.0731 
     80 H80        30.8851   -5.8360   -2.3398 H         1 UNK         0.0731 
     81 H81        30.6802   -5.1654   -4.6180 H         1 UNK         0.1312 
     82 H82        31.3953   -1.1016   -5.7891 H         1 UNK         0.1406 
     83 H83        31.3945   -2.1752   -1.6398 H         1 UNK         0.1631 
     84 H84        32.7838    0.1561   -3.4368 H         1 UNK         0.0717 
     85 H85        31.5434    0.1076   -2.2081 H         1 UNK         0.0717 
     86 H86        29.0448   -0.3091   -3.4923 H         1 UNK         0.0934 
     87 H87        28.4762    1.3256   -3.4168 H         1 UNK         0.0934 
     88 H88        29.1678    0.1150   -6.1401 H         1 UNK         0.0739 
     89 H89        27.2488   -1.1055   -4.5512 H         1 UNK         0.3093 
     90 H90        24.9040   -2.0405   -7.0895 H         1 UNK         0.0818 
     91 H91        25.3441   -4.2311   -5.9826 H         1 UNK         0.0819 
     92 H92        26.6489   -3.7872   -7.0696 H         1 UNK         0.0819 
     93 H93        26.8676   -3.6196   -5.3383 H         1 UNK         0.0819 
     94 H94        25.0623   -2.2412   -4.1935 H         1 UNK         0.3041 
     95 H95        23.2276    0.7258   -3.5317 H         1 UNK         0.0784 
     96 H96        21.3902   -0.8396   -4.0774 H         1 UNK         0.0793 
     97 H97        22.2591   -2.1759   -3.3411 H         1 UNK         0.0793 
     98 H98        21.6924   -0.8357   -2.3474 H         1 UNK         0.0793 
     99 H99        24.2343   -1.4752   -1.9317 H         1 UNK         0.3024 
    100 H100       27.4760   -0.0670   -1.4438 H         1 UNK         0.1171 
    101 H101       26.0833    1.2766    0.1419 H         1 UNK         0.0786 
    102 H102       26.8452   -0.0803    0.9537 H         1 UNK         0.0786 
    103 H103       25.1326   -0.1496    0.5346 H         1 UNK         0.0786 
    104 H104       26.2161   -2.2800   -0.1948 H         1 UNK         0.2977 
    105 H105       26.2142    1.6018   -4.7440 H         1 UNK         0.3127 
    106 H106       26.5560    4.1842   -5.8700 H         1 UNK         0.0770 
    107 H107       23.9930    2.7299   -5.0222 H         1 UNK         0.0814 
    108 H108       24.1423    4.4599   -5.2981 H         1 UNK         0.0814 
    109 H109       25.0211    3.7068   -3.9760 H         1 UNK         0.0814 
    110 H110       24.8851    1.2783   -7.1545 H         1 UNK         0.2983 
    111 H111       23.7861    2.5896   -9.4529 H         1 UNK         0.0947 
    112 H112       22.7931    0.5318   -8.5080 H         1 UNK         0.0806 
    113 H113       23.2568    0.2582  -10.1801 H         1 UNK         0.0806 
    114 H114       24.2519   -0.3839   -8.8798 H         1 UNK         0.0806 
    115 H115       26.7201    0.5584   -9.0096 H         1 UNK         0.3000 
    116 H116       27.5030    0.9512  -11.8464 H         1 UNK         0.0850 
    117 H117       29.1512   -0.8464  -11.3271 H         1 UNK         0.0810 
    118 H118       27.5065   -1.3518  -10.9872 H         1 UNK         0.0810 
    119 H119       28.5770   -0.9191   -9.6637 H         1 UNK         0.0810 
    120 H120       29.9207    0.5251   -9.3435 H         1 UNK         0.3040 
    121 H121       30.8371    3.2092   -9.1536 H         1 UNK         0.0766 
    122 H122       32.9620    2.8975  -10.4578 H         1 UNK         0.0812 
    123 H123       31.5965    2.7040  -11.5322 H         1 UNK         0.0812 
    124 H124       32.4548    1.2837  -10.9456 H         1 UNK         0.0812 
    125 H125       33.3986    2.7598   -8.3703 H         1 UNK         0.3205 
    126 H126       33.1336    1.6228   -5.8184 H         1 UNK         0.0754 
    127 H127       35.5806    2.1102   -5.6410 H         1 UNK         0.0769 
    128 H128       34.7062    3.4546   -6.3504 H         1 UNK         0.0769 
    129 H129       35.6606    2.3817   -7.3763 H         1 UNK         0.0769 
    130 H130       33.9213   -0.0392   -8.7468 H         1 UNK         0.2981 
    131 H131       34.4233   -2.1032   -9.2856 H         1 UNK         0.0541 
    132 H132       36.6837   -0.4612   -7.8943 H         1 UNK         0.3459 
    133 H133       37.9012   -1.6938   -7.6742 H         1 UNK         0.3459 
    134 H134       33.5988   -2.9512   -6.4700 H         1 UNK         0.0612 
    135 H135       33.7586   -4.0175   -7.8421 H         1 UNK         0.0612 
    136 H136       31.1212   -4.6756   -6.9327 H         1 UNK         0.0624 
    137 H137       29.7926   -3.5482   -7.0763 H         1 UNK         0.0624 
@<TRIPOS>BOND
     1    1    2 1    
     2    1   72 1    
     3    1   73 1    
     4    1   74 1    
     5    2    3 2    
     6    2    4 am   BACKBONE|DICT|INTERRES
     7    4    5 1    
     8    4   75 1    
     9    5    6 1    
    10    5   35 1    
    11    5   76 1    
    12    6    7 1    
    13    6   77 1    
    14    6   78 1    
    15    7    8 1    
    16    8    9 1    
    17    8   79 1    
    18    8   80 1    
    19    9   10 ar   
    20    9   14 ar   
    21   10   11 ar   
    22   10   81 1    
    23   11   12 ar   
    24   11   71 1    
    25   12   13 ar   
    26   12   82 1    
    27   13   14 ar   
    28   13   15 1    
    29   14   83 1    
    30   15   16 1    
    31   15   84 1    
    32   15   85 1    
    33   16   17 1    
    34   17   18 1    
    35   17   86 1    
    36   17   87 1    
    37   18   19 1    
    38   18   37 1    
    39   18   88 1    
    40   19   20 am   BACKBONE|DICT|INTERRES
    41   19   89 1    
    42   20   21 2    
    43   20   22 1    
    44   22   23 1    
    45   22   24 1    
    46   22   90 1    
    47   23   91 1    
    48   23   92 1    
    49   23   93 1    
    50   24   25 am   BACKBONE|DICT|INTERRES
    51   24   94 1    
    52   25   26 2    
    53   25   27 1    
    54   27   28 1    
    55   27   29 1    
    56   27   95 1    
    57   28   96 1    
    58   28   97 1    
    59   28   98 1    
    60   29   30 am   BACKBONE|DICT|INTERRES
    61   29   99 1    
    62   30   31 2    
    63   30   32 1    
    64   32   33 1    
    65   32   34 1    
    66   32  100 1    
    67   33  101 1    
    68   33  102 1    
    69   33  103 1    
    70   34   35 am   BACKBONE|DICT|INTERRES
    71   34  104 1    
    72   35   36 2    
    73   37   38 2    
    74   37   39 am   BACKBONE|DICT|INTERRES
    75   39   40 1    
    76   39  105 1    
    77   40   41 1    
    78   40   42 1    
    79   40  106 1    
    80   41  107 1    
    81   41  108 1    
    82   41  109 1    
    83   42   43 2    
    84   42   44 am   BACKBONE|DICT|INTERRES
    85   44   45 1    
    86   44  110 1    
    87   45   46 1    
    88   45   47 1    
    89   45  111 1    
    90   46  112 1    
    91   46  113 1    
    92   46  114 1    
    93   47   48 2    
    94   47   49 am   BACKBONE|DICT|INTERRES
    95   49   50 1    
    96   49  115 1    
    97   50   51 1    
    98   50   52 1    
    99   50  116 1    
   100   51  117 1    
   101   51  118 1    
   102   51  119 1    
   103   52   53 2    
   104   52   54 am   BACKBONE|DICT|INTERRES
   105   54   55 1    
   106   54  120 1    
   107   55   56 1    
   108   55   57 1    
   109   55  121 1    
   110   56  122 1    
   111   56  123 1    
   112   56  124 1    
   113   57   58 2    
   114   57   59 am   BACKBONE|DICT|INTERRES
   115   59   60 1    
   116   59  125 1    
   117   60   61 1    
   118   60   62 1    
   119   60  126 1    
   120   61  127 1    
   121   61  128 1    
   122   61  129 1    
   123   62   63 2    
   124   62   64 am   BACKBONE|DICT|INTERRES
   125   64   65 1    
   126   64  130 1    
   127   65   66 1    
   128   65   69 1    
   129   65  131 1    
   130   66   67 am   BACKBONE|DICT|INTERRES
   131   66   68 2    
   132   67  132 1    
   133   67  133 1    
   134   69   70 1    
   135   69  134 1    
   136   69  135 1    
   137   70   71 1    
   138   71  136 1    
   139   71  137 1    
@<TRIPOS>SUBSTRUCTURE
     1 UNK         1 GROUP             0       ****    0 ROOT    
