@<TRIPOS>MOLECULE
3R137
137   139    1
SMALL
USER_CHARGES


@<TRIPOS>ATOM
      1 CA         31.1838   -1.3050    0.0015 C.3       0 UNK        -0.2020 
      2 C          30.0628   -1.0342    0.9964 C.2       0 UNK         0.4855 
      3 O          30.2461   -0.2320    1.9098 O.2       0 UNK        -0.5197 
      4 N          28.8906   -1.6638    0.8691 N.am      1 UNK        -0.4892 
      5 CA         28.4605   -2.6111   -0.1601 C.3       1 UNK         0.0835 
      6 C6         28.8633   -4.0637    0.2106 C.3       12 UNK        -0.0855 
      7 S7         28.4476   -5.3296   -1.0424 S.3       12 UNK        -0.2931 
      8 C8         30.0308   -5.6003   -1.9037 C.3       12 UNK         0.0378 
      9 C9         30.1513   -4.7042   -3.1266 C.ar      12 UNK        -0.0802 
     10 C10        30.7992   -3.4694   -3.0404 C.ar      12 UNK        -0.0944 
     11 C11        30.8822   -2.6228   -4.1503 C.ar      12 UNK        -0.0787 
     12 C12        30.3140   -3.0388   -5.3602 C.ar      12 UNK        -0.0862 
     13 C13        29.6892   -4.2843   -5.4713 C.ar      12 UNK        -0.0733 
     14 C14        29.6110   -5.1134   -4.3491 C.ar      12 UNK        -0.0832 
     15 C15        29.1196   -4.7316   -6.8125 C.3       12 UNK         0.0240 
     16 S16        27.3466   -5.1574   -6.7615 S.3       12 UNK        -0.2522 
     17 C17        26.5756   -3.6963   -5.9900 C.3       12 UNK        -0.0967 
     18 CA         26.3188   -2.5286   -6.9783 C.3       5 UNK         0.0660 
     19 N          25.0713   -1.8253   -6.6746 N.am      5 UNK        -0.4015 
     20 C          24.4804   -0.9237   -7.4708 C.2       4 UNK         0.4946 
     21 O          24.8956   -0.6106   -8.5865 O.2       4 UNK        -0.5353 
     22 CA         23.2331   -0.2253   -6.9044 C.3       4 UNK         0.0277 
     23 CB         21.9778   -1.0808   -7.1387 C.3       4 UNK        -0.1981 
     24 N          23.3606    0.0874   -5.4775 N.am      4 UNK        -0.4209 
     25 C          24.2331    0.9768   -4.9826 C.2       3 UNK         0.4942 
     26 O          24.9986    1.6445   -5.6773 O.2       3 UNK        -0.5208 
     27 CA         24.2906    1.1181   -3.4529 C.3       3 UNK         0.0250 
     28 CB         23.1680    2.0418   -2.9533 C.3       3 UNK        -0.1990 
     29 N          24.2502   -0.1528   -2.7169 N.am      3 UNK        -0.4232 
     30 C          25.1233   -1.1580   -2.8700 C.2       2 UNK         0.4993 
     31 O          25.9824   -1.1975   -3.7537 O.2       2 UNK        -0.5286 
     32 CA         25.0314   -2.3239   -1.8807 C.3       2 UNK         0.0209 
     33 CB         24.3569   -3.5411   -2.5324 C.3       2 UNK        -0.1931 
     34 N          26.3956   -2.6773   -1.4902 N.am      2 UNK        -0.4546 
     35 C          26.9372   -2.4114   -0.2975 C.2       1 UNK         0.5154 
     36 O          26.2898   -1.9943    0.6694 O.2       1 UNK        -0.5181 
     37 C          27.4987   -1.5411   -7.0109 C.2       5 UNK         0.5014 
     38 O          28.2682   -1.5427   -7.9715 O.2       5 UNK        -0.5248 
     39 N          27.5909   -0.6908   -5.9777 N.am      6 UNK        -0.4434 
     40 CA         28.5931    0.3643   -5.8375 C.3       6 UNK         0.0363 
     41 CB         28.4195    1.0675   -4.4825 C.3       6 UNK        -0.1936 
     42 C          28.5677    1.3763   -6.9903 C.2       6 UNK         0.5081 
     43 O          29.6320    1.7370   -7.4922 O.2       6 UNK        -0.5248 
     44 N          27.3618    1.7807   -7.4126 N.am      7 UNK        -0.4718 
     45 CA         27.1353    2.6404   -8.5744 C.3       7 UNK         0.0273 
     46 CB         25.6655    3.0882   -8.6082 C.3       7 UNK        -0.1935 
     47 C          27.5311    1.9684   -9.8994 C.2       7 UNK         0.5018 
     48 O          28.1806    2.6124  -10.7233 O.2       7 UNK        -0.5186 
     49 N          27.1516    0.6936  -10.0772 N.am      8 UNK        -0.4240 
     50 CA         27.4657   -0.1060  -11.2654 C.3       8 UNK         0.0235 
     51 CB         26.6615   -1.4160  -11.2417 C.3       8 UNK        -0.2000 
     52 C          28.9681   -0.3939  -11.4195 C.2       8 UNK         0.4941 
     53 O          29.4997   -0.2545  -12.5218 O.2       8 UNK        -0.5273 
     54 N          29.6253   -0.7793  -10.3176 N.am      9 UNK        -0.4262 
     55 CA         31.0645   -1.0506  -10.2648 C.3       9 UNK         0.0264 
     56 CB         31.3665   -1.9003   -9.0224 C.3       9 UNK        -0.1955 
     57 C          31.9296    0.2216  -10.2519 C.2       9 UNK         0.5031 
     58 O          33.1148    0.1331  -10.5761 O.2       9 UNK        -0.5390 
     59 N          31.3358    1.3595   -9.8615 N.am      10 UNK        -0.4204 
     60 CA         31.9629    2.6637   -9.6270 C.3       10 UNK         0.0237 
     61 CB         32.5368    3.2568  -10.9320 C.3       10 UNK        -0.1985 
     62 C          32.9832    2.5996   -8.4746 C.2       10 UNK         0.4970 
     63 O          34.1342    3.0092   -8.6414 O.2       10 UNK        -0.4914 
     64 N          32.5375    2.0650   -7.3294 N.am      11 UNK        -0.4285 
     65 CA         33.3186    1.9695   -6.0861 C.3       11 UNK         0.1007 
     66 C          33.6880    3.3644   -5.5082 C.2       11 UNK         0.5703 
     67 N          34.8605    3.4940   -4.9021 N.am      11 UNK        -0.7361 
     68 O          32.9071    4.3131   -5.5655 O.2       11 UNK        -0.4986 
     69 C69        32.5921    1.1210   -5.0105 C.3       12 UNK        -0.0947 
     70 S70        32.3741   -0.6222   -5.4921 S.3       12 UNK        -0.2240 
     71 C71        31.5378   -1.2502   -3.9947 C.3       12 UNK         0.0194 
     72 H72        30.8741   -1.0457   -1.0095 H         1 UNK         0.0906 
     73 H73        32.0596   -0.7021    0.2410 H         1 UNK         0.0906 
     74 H74        31.4861   -2.3503    0.0354 H         1 UNK         0.0906 
     75 H75        28.1338   -1.4274    1.5018 H         1 UNK         0.3140 
     76 H76        28.9118   -2.3392   -1.1155 H         1 UNK         0.1085 
     77 H77        28.3793   -4.3538    1.1453 H         1 UNK         0.0836 
     78 H78        29.9321   -4.1145    0.4176 H         1 UNK         0.0836 
     79 H79        30.8717   -5.4493   -1.2254 H         1 UNK         0.0731 
     80 H80        30.0826   -6.6453   -2.2134 H         1 UNK         0.0731 
     81 H81        31.2314   -3.1654   -2.1000 H         1 UNK         0.1312 
     82 H82        30.3546   -2.3927   -6.2236 H         1 UNK         0.1406 
     83 H83        29.1171   -6.0729   -4.4261 H         1 UNK         0.1631 
     84 H84        29.6759   -5.6058   -7.1529 H         1 UNK         0.0717 
     85 H85        29.2701   -3.9673   -7.5745 H         1 UNK         0.0717 
     86 H86        25.6228   -4.0602   -5.6046 H         1 UNK         0.0934 
     87 H87        27.1351   -3.3849   -5.1055 H         1 UNK         0.0934 
     88 H88        26.2055   -2.9380   -7.9847 H         1 UNK         0.0739 
     89 H89        24.6952   -1.9612   -5.7483 H         1 UNK         0.3093 
     90 H90        23.1098    0.7158   -7.4452 H         1 UNK         0.0818 
     91 H91        21.0763   -0.5581   -6.8183 H         1 UNK         0.0819 
     92 H92        21.8566   -1.3108   -8.1984 H         1 UNK         0.0819 
     93 H93        22.0250   -2.0296   -6.6029 H         1 UNK         0.0819 
     94 H94        22.7623   -0.4122   -4.8356 H         1 UNK         0.3041 
     95 H95        25.2445    1.5925   -3.2134 H         1 UNK         0.0784 
     96 H96        23.1881    2.9989   -3.4768 H         1 UNK         0.0793 
     97 H97        22.1813    1.6046   -3.1115 H         1 UNK         0.0793 
     98 H98        23.2739    2.2564   -1.8896 H         1 UNK         0.0793 
     99 H99        23.5650   -0.2158   -1.9772 H         1 UNK         0.3024 
    100 H100       24.4415   -2.0174   -1.0137 H         1 UNK         0.1171 
    101 H101       23.3526   -3.2965   -2.8806 H         1 UNK         0.0786 
    102 H102       24.2625   -4.3625   -1.8218 H         1 UNK         0.0786 
    103 H103       24.9228   -3.9093   -3.3872 H         1 UNK         0.0786 
    104 H104       26.9970   -2.9835   -2.2429 H         1 UNK         0.2977 
    105 H105       26.9297   -0.7918   -5.2073 H         1 UNK         0.3127 
    106 H106       29.5688   -0.1179   -5.8547 H         1 UNK         0.0770 
    107 H107       27.4564    1.5731   -4.4131 H         1 UNK         0.0814 
    108 H108       29.1937    1.8201   -4.3301 H         1 UNK         0.0814 
    109 H109       28.4824    0.3598   -3.6558 H         1 UNK         0.0814 
    110 H110       26.5387    1.4849   -6.8943 H         1 UNK         0.2983 
    111 H111       27.7593    3.5291   -8.4565 H         1 UNK         0.0947 
    112 H112       25.4744    3.7409   -9.4611 H         1 UNK         0.0806 
    113 H113       25.4009    3.6439   -7.7084 H         1 UNK         0.0806 
    114 H114       24.9858    2.2388   -8.6862 H         1 UNK         0.0806 
    115 H115       26.5840    0.2456   -9.3638 H         1 UNK         0.3000 
    116 H116       27.1504    0.4665  -12.1404 H         1 UNK         0.0850 
    117 H117       26.8771   -2.0242  -12.1211 H         1 UNK         0.0810 
    118 H118       25.5890   -1.2212  -11.2375 H         1 UNK         0.0810 
    119 H119       26.8940   -2.0176  -10.3622 H         1 UNK         0.0810 
    120 H120       29.0981   -0.9289   -9.4564 H         1 UNK         0.3040 
    121 H121       31.3409   -1.6285  -11.1493 H         1 UNK         0.0766 
    122 H122       32.4281   -2.1423   -8.9567 H         1 UNK         0.0812 
    123 H123       30.8180   -2.8414   -9.0416 H         1 UNK         0.0812 
    124 H124       31.0960   -1.3672   -8.1116 H         1 UNK         0.0812 
    125 H125       30.3716    1.2959   -9.5579 H         1 UNK         0.3205 
    126 H126       31.1642    3.3275   -9.2918 H         1 UNK         0.0754 
    127 H127       32.8951    4.2742  -10.7710 H         1 UNK         0.0769 
    128 H128       31.7774    3.2999  -11.7128 H         1 UNK         0.0769 
    129 H129       33.3766    2.6746  -11.3123 H         1 UNK         0.0769 
    130 H130       31.5590    1.7978   -7.2738 H         1 UNK         0.2981 
    131 H131       34.2517    1.4623   -6.3396 H         1 UNK         0.0541 
    132 H132       35.5033    2.7199   -4.8380 H         1 UNK         0.3459 
    133 H133       35.1115    4.3869   -4.5073 H         1 UNK         0.3459 
    134 H134       31.6133    1.5495   -4.7887 H         1 UNK         0.0612 
    135 H135       33.1527    1.1302   -4.0736 H         1 UNK         0.0612 
    136 H136       32.2732   -1.2763   -3.1892 H         1 UNK         0.0624 
    137 H137       30.7689   -0.5415   -3.6886 H         1 UNK         0.0624 
@<TRIPOS>BOND
     1    1    2 1    
     2    1   72 1    
     3    1   73 1    
     4    1   74 1    
     5    2    3 2    
     6    2    4 am   BACKBONE|DICT|INTERRES
     7    4    5 1    
     8    4   75 1    
     9    5    6 1    
    10    5   35 1    
    11    5   76 1    
    12    6    7 1    
    13    6   77 1    
    14    6   78 1    
    15    7    8 1    
    16    8    9 1    
    17    8   79 1    
    18    8   80 1    
    19    9   10 ar   
    20    9   14 ar   
    21   10   11 ar   
    22   10   81 1    
    23   11   12 ar   
    24   11   71 1    
    25   12   13 ar   
    26   12   82 1    
    27   13   14 ar   
    28   13   15 1    
    29   14   83 1    
    30   15   16 1    
    31   15   84 1    
    32   15   85 1    
    33   16   17 1    
    34   17   18 1    
    35   17   86 1    
    36   17   87 1    
    37   18   19 1    
    38   18   37 1    
    39   18   88 1    
    40   19   20 am   BACKBONE|DICT|INTERRES
    41   19   89 1    
    42   20   21 2    
    43   20   22 1    
    44   22   23 1    
    45   22   24 1    
    46   22   90 1    
    47   23   91 1    
    48   23   92 1    
    49   23   93 1    
    50   24   25 am   BACKBONE|DICT|INTERRES
    51   24   94 1    
    52   25   26 2    
    53   25   27 1    
    54   27   28 1    
    55   27   29 1    
    56   27   95 1    
    57   28   96 1    
    58   28   97 1    
    59   28   98 1    
    60   29   30 am   BACKBONE|DICT|INTERRES
    61   29   99 1    
    62   30   31 2    
    63   30   32 1    
    64   32   33 1    
    65   32   34 1    
    66   32  100 1    
    67   33  101 1    
    68   33  102 1    
    69   33  103 1    
    70   34   35 am   BACKBONE|DICT|INTERRES
    71   34  104 1    
    72   35   36 2    
    73   37   38 2    
    74   37   39 am   BACKBONE|DICT|INTERRES
    75   39   40 1    
    76   39  105 1    
    77   40   41 1    
    78   40   42 1    
    79   40  106 1    
    80   41  107 1    
    81   41  108 1    
    82   41  109 1    
    83   42   43 2    
    84   42   44 am   BACKBONE|DICT|INTERRES
    85   44   45 1    
    86   44  110 1    
    87   45   46 1    
    88   45   47 1    
    89   45  111 1    
    90   46  112 1    
    91   46  113 1    
    92   46  114 1    
    93   47   48 2    
    94   47   49 am   BACKBONE|DICT|INTERRES
    95   49   50 1    
    96   49  115 1    
    97   50   51 1    
    98   50   52 1    
    99   50  116 1    
   100   51  117 1    
   101   51  118 1    
   102   51  119 1    
   103   52   53 2    
   104   52   54 am   BACKBONE|DICT|INTERRES
   105   54   55 1    
   106   54  120 1    
   107   55   56 1    
   108   55   57 1    
   109   55  121 1    
   110   56  122 1    
   111   56  123 1    
   112   56  124 1    
   113   57   58 2    
   114   57   59 am   BACKBONE|DICT|INTERRES
   115   59   60 1    
   116   59  125 1    
   117   60   61 1    
   118   60   62 1    
   119   60  126 1    
   120   61  127 1    
   121   61  128 1    
   122   61  129 1    
   123   62   63 2    
   124   62   64 am   BACKBONE|DICT|INTERRES
   125   64   65 1    
   126   64  130 1    
   127   65   66 1    
   128   65   69 1    
   129   65  131 1    
   130   66   67 am   BACKBONE|DICT|INTERRES
   131   66   68 2    
   132   67  132 1    
   133   67  133 1    
   134   69   70 1    
   135   69  134 1    
   136   69  135 1    
   137   70   71 1    
   138   71  136 1    
   139   71  137 1    
@<TRIPOS>SUBSTRUCTURE
     1 UNK         1 GROUP             0       ****    0 ROOT    
