@<TRIPOS>MOLECULE
3R137
137   139    1
SMALL
USER_CHARGES


@<TRIPOS>ATOM
      1 CA         27.9179   -6.5348   -3.5648 C.3       0 UNK        -0.2020 
      2 C          27.5305   -5.9808   -2.2028 C.2       0 UNK         0.4855 
      3 O          26.6643   -6.5491   -1.5378 O.2       0 UNK        -0.5197 
      4 N          28.1700   -4.8822   -1.7786 N.am      1 UNK        -0.4892 
      5 CA         27.9111   -4.2098   -0.4990 C.3       1 UNK         0.0835 
      6 C6         29.0142   -3.1816   -0.1545 C.3       12 UNK        -0.0855 
      7 S7         30.6303   -3.9278    0.2716 S.3       12 UNK        -0.2931 
      8 C8         31.4372   -4.3206   -1.3253 C.3       12 UNK         0.0378 
      9 C9         31.2512   -3.2708   -2.4166 C.ar      12 UNK        -0.0802 
     10 C10        31.4315   -1.9090   -2.1512 C.ar      12 UNK        -0.0944 
     11 C11        31.1892   -0.9460   -3.1353 C.ar      12 UNK        -0.0787 
     12 C12        30.7821   -1.3669   -4.4082 C.ar      12 UNK        -0.0862 
     13 C13        30.6608   -2.7280   -4.7068 C.ar      12 UNK        -0.0733 
     14 C14        30.8988   -3.6734   -3.7076 C.ar      12 UNK        -0.0832 
     15 C15        30.3052   -3.1781   -6.1177 C.3       12 UNK         0.0240 
     16 S16        28.7382   -4.1061   -6.2194 S.3       12 UNK        -0.2522 
     17 C17        27.5129   -2.9228   -5.5718 C.3       12 UNK        -0.0967 
     18 CA         26.9273   -1.9885   -6.6637 C.3       5 UNK         0.0660 
     19 N          25.5551   -1.5777   -6.3581 N.am      5 UNK        -0.4015 
     20 C          24.7277   -0.9676   -7.2211 C.2       4 UNK         0.4946 
     21 O          25.0069   -0.7474   -8.3989 O.2       4 UNK        -0.5353 
     22 CA         23.3731   -0.4852   -6.6714 C.3       4 UNK         0.0277 
     23 CB         22.3166   -1.5946   -6.7932 C.3       4 UNK        -0.1981 
     24 N          23.4480   -0.0306   -5.2806 N.am      4 UNK        -0.4209 
     25 C          24.1579    1.0287   -4.8650 C.2       3 UNK         0.4942 
     26 O          24.7606    1.7859   -5.6235 O.2       3 UNK        -0.5208 
     27 CA         24.2634    1.2487   -3.3458 C.3       3 UNK         0.0250 
     28 CB         23.1539    2.1953   -2.8618 C.3       3 UNK        -0.1990 
     29 N          24.2295    0.0079   -2.5612 N.am      3 UNK        -0.4232 
     30 C          25.1126   -0.9942   -2.6723 C.2       2 UNK         0.4993 
     31 O          26.0482   -1.0013   -3.4785 O.2       2 UNK        -0.5286 
     32 CA         24.8663   -2.2186   -1.7866 C.3       2 UNK         0.0209 
     33 CB         23.8284   -3.1534   -2.4324 C.3       2 UNK        -0.1931 
     34 N          26.1210   -2.9448   -1.6134 N.am      2 UNK        -0.4546 
     35 C          26.5279   -3.5246   -0.4773 C.2       1 UNK         0.5154 
     36 O          25.8636   -3.5350    0.5605 O.2       1 UNK        -0.5181 
     37 C          27.8137   -0.7499   -6.8757 C.2       5 UNK         0.5014 
     38 O          28.5237   -0.6702   -7.8795 O.2       5 UNK        -0.5248 
     39 N          27.7243    0.2075   -5.9400 N.am      6 UNK        -0.4434 
     40 CA         28.4301    1.4882   -5.9911 C.3       6 UNK         0.0363 
     41 CB         28.1667    2.2824   -4.7024 C.3       6 UNK        -0.1936 
     42 C          28.0754    2.3131   -7.2369 C.2       6 UNK         0.5081 
     43 O          28.9816    2.7874   -7.9194 O.2       6 UNK        -0.5248 
     44 N          26.7759    2.4224   -7.5431 N.am      7 UNK        -0.4718 
     45 CA         26.2584    3.1017   -8.7332 C.3       7 UNK         0.0273 
     46 CB         24.7238    3.1525   -8.6654 C.3       7 UNK        -0.1935 
     47 C          26.7178    2.4633  -10.0561 C.2       7 UNK         0.5018 
     48 O          26.9830    3.1932  -11.0122 O.2       7 UNK        -0.5186 
     49 N          26.7998    1.1262  -10.0911 N.am      8 UNK        -0.4240 
     50 CA         27.2323    0.3632  -11.2599 C.3       8 UNK         0.0235 
     51 CB         26.7325   -1.0872  -11.1477 C.3       8 UNK        -0.2000 
     52 C          28.7541    0.3979  -11.4674 C.2       8 UNK         0.4941 
     53 O          29.2026    0.7250  -12.5673 O.2       8 UNK        -0.5273 
     54 N          29.5165    0.0123  -10.4354 N.am      9 UNK        -0.4262 
     55 CA         30.9446   -0.2946  -10.5569 C.3       9 UNK         0.0264 
     56 CB         31.2507   -1.5420   -9.7113 C.3       9 UNK        -0.1955 
     57 C          31.8795    0.8498  -10.1393 C.2       9 UNK         0.5031 
     58 O          33.0593    0.7871  -10.4863 O.2       9 UNK        -0.5390 
     59 N          31.3788    1.8336   -9.3741 N.am      10 UNK        -0.4204 
     60 CA         32.1493    2.8950   -8.7024 C.3       10 UNK         0.0237 
     61 CB         32.8617    3.8152   -9.7182 C.3       10 UNK        -0.1985 
     62 C          33.0933    2.3653   -7.5987 C.2       10 UNK         0.4970 
     63 O          34.0651    3.0407   -7.2544 O.2       10 UNK        -0.4914 
     64 N          32.7689    1.1857   -7.0487 N.am      11 UNK        -0.4285 
     65 CA         33.4901    0.4787   -5.9758 C.3       11 UNK         0.1007 
     66 C          34.9363    0.0531   -6.3785 C.2       11 UNK         0.5703 
     67 N          35.8251   -0.1963   -5.4250 N.am      11 UNK        -0.7361 
     68 O          35.2511   -0.1149   -7.5550 O.2       11 UNK        -0.4986 
     69 C69        33.4020    1.2092   -4.6002 C.3       12 UNK        -0.0947 
     70 S70        31.6982    1.6714   -4.1357 S.3       12 UNK        -0.2240 
     71 C71        31.3295    0.5304   -2.7593 C.3       12 UNK         0.0194 
     72 H72        28.0222   -7.6183   -3.5156 H         1 UNK         0.0906 
     73 H73        27.1478   -6.2995   -4.2990 H         1 UNK         0.0906 
     74 H74        28.8629   -6.1252   -3.9171 H         1 UNK         0.0906 
     75 H75        28.8770   -4.4553   -2.3593 H         1 UNK         0.3140 
     76 H76        27.8977   -4.9719    0.2838 H         1 UNK         0.1085 
     77 H77        28.7200   -2.6042    0.7248 H         1 UNK         0.0836 
     78 H78        29.1192   -2.4461   -0.9517 H         1 UNK         0.0836 
     79 H79        32.5054   -4.4551   -1.1504 H         1 UNK         0.0731 
     80 H80        31.0630   -5.2894   -1.6597 H         1 UNK         0.0731 
     81 H81        31.7241   -1.5964   -1.1579 H         1 UNK         0.1312 
     82 H82        30.5746   -0.6382   -5.1772 H         1 UNK         0.1406 
     83 H83        30.8060   -4.7249   -3.9427 H         1 UNK         0.1631 
     84 H84        31.1079   -3.8124   -6.4959 H         1 UNK         0.0717 
     85 H85        30.2573   -2.3261   -6.7918 H         1 UNK         0.0717 
     86 H86        26.7141   -3.5306   -5.1438 H         1 UNK         0.0934 
     87 H87        27.9301   -2.3691   -4.7289 H         1 UNK         0.0934 
     88 H88        26.8889   -2.5349   -7.6089 H         1 UNK         0.0739 
     89 H89        25.2833   -1.6378   -5.3858 H         1 UNK         0.3093 
     90 H90        23.0532    0.3614   -7.2827 H         1 UNK         0.0818 
     91 H91        21.3319   -1.2406   -6.4873 H         1 UNK         0.0819 
     92 H92        22.2289   -1.9362   -7.8257 H         1 UNK         0.0819 
     93 H93        22.5669   -2.4634   -6.1830 H         1 UNK         0.0819 
     94 H94        22.9665   -0.5858   -4.5887 H         1 UNK         0.3041 
     95 H95        25.2264    1.7271   -3.1556 H         1 UNK         0.0784 
     96 H96        23.1738    3.1347   -3.4166 H         1 UNK         0.0793 
     97 H97        22.1627    1.7597   -2.9943 H         1 UNK         0.0793 
     98 H98        23.2749    2.4431   -1.8071 H         1 UNK         0.0793 
     99 H99        23.4825   -0.0742   -1.8858 H         1 UNK         0.3024 
    100 H100       24.4975   -1.8716   -0.8183 H         1 UNK         0.1171 
    101 H101       22.8702   -2.6501   -2.5670 H         1 UNK         0.0786 
    102 H102       23.6465   -4.0292   -1.8090 H         1 UNK         0.0786 
    103 H103       24.1559   -3.5060   -3.4114 H         1 UNK         0.0786 
    104 H104       26.7479   -2.9095   -2.4056 H         1 UNK         0.2977 
    105 H105       27.1168    0.0482   -5.1446 H         1 UNK         0.3127 
    106 H106       29.4969    1.2691   -6.0456 H         1 UNK         0.0770 
    107 H107       27.1186    2.5636   -4.6028 H         1 UNK         0.0814 
    108 H108       28.7526    3.2023   -4.6899 H         1 UNK         0.0814 
    109 H109       28.4463    1.7090   -3.8186 H         1 UNK         0.0814 
    110 H110       26.0866    2.0418   -6.8968 H         1 UNK         0.2983 
    111 H111       26.6364    4.1262   -8.7167 H         1 UNK         0.0947 
    112 H112       24.3105    3.6762   -9.5285 H         1 UNK         0.0806 
    113 H113       24.3835    3.6782   -7.7730 H         1 UNK         0.0806 
    114 H114       24.2894    2.1522   -8.6497 H         1 UNK         0.0806 
    115 H115       26.5235    0.5959   -9.2726 H         1 UNK         0.3000 
    116 H116       26.7690    0.8028  -12.1462 H         1 UNK         0.0850 
    117 H117       27.0546   -1.6808  -12.0043 H         1 UNK         0.0810 
    118 H118       25.6435   -1.1271  -11.1174 H         1 UNK         0.0810 
    119 H119       27.1070   -1.5784  -10.2485 H         1 UNK         0.0810 
    120 H120       29.0718   -0.2257   -9.5482 H         1 UNK         0.3040 
    121 H121       31.1792   -0.5386  -11.5955 H         1 UNK         0.0766 
    122 H122       32.2829   -1.8663   -9.8509 H         1 UNK         0.0812 
    123 H123       30.6076   -2.3790   -9.9841 H         1 UNK         0.0812 
    124 H124       31.1144   -1.3446   -8.6492 H         1 UNK         0.0812 
    125 H125       30.3886    1.8246   -9.1479 H         1 UNK         0.3205 
    126 H126       31.4197    3.5134   -8.1800 H         1 UNK         0.0754 
    127 H127       33.2699    4.6978   -9.2245 H         1 UNK         0.0769 
    128 H128       32.1726    4.1656  -10.4866 H         1 UNK         0.0769 
    129 H129       33.6919    3.3119  -10.2139 H         1 UNK         0.0769 
    130 H130       31.9659    0.7052   -7.4211 H         1 UNK         0.2981 
    131 H131       32.9651   -0.4696   -5.8702 H         1 UNK         0.0541 
    132 H132       36.7520   -0.4929   -5.6877 H         1 UNK         0.3459 
    133 H133       35.5902   -0.0901   -4.4513 H         1 UNK         0.3459 
    134 H134       34.0023    2.1201   -4.6164 H         1 UNK         0.0612 
    135 H135       33.8149    0.5860   -3.8060 H         1 UNK         0.0612 
    136 H136       30.3947    0.8498   -2.2977 H         1 UNK         0.0624 
    137 H137       32.1033    0.6521   -1.9996 H         1 UNK         0.0624 
@<TRIPOS>BOND
     1    1    2 1    
     2    1   72 1    
     3    1   73 1    
     4    1   74 1    
     5    2    3 2    
     6    2    4 am   BACKBONE|DICT|INTERRES
     7    4    5 1    
     8    4   75 1    
     9    5    6 1    
    10    5   35 1    
    11    5   76 1    
    12    6    7 1    
    13    6   77 1    
    14    6   78 1    
    15    7    8 1    
    16    8    9 1    
    17    8   79 1    
    18    8   80 1    
    19    9   10 ar   
    20    9   14 ar   
    21   10   11 ar   
    22   10   81 1    
    23   11   12 ar   
    24   11   71 1    
    25   12   13 ar   
    26   12   82 1    
    27   13   14 ar   
    28   13   15 1    
    29   14   83 1    
    30   15   16 1    
    31   15   84 1    
    32   15   85 1    
    33   16   17 1    
    34   17   18 1    
    35   17   86 1    
    36   17   87 1    
    37   18   19 1    
    38   18   37 1    
    39   18   88 1    
    40   19   20 am   BACKBONE|DICT|INTERRES
    41   19   89 1    
    42   20   21 2    
    43   20   22 1    
    44   22   23 1    
    45   22   24 1    
    46   22   90 1    
    47   23   91 1    
    48   23   92 1    
    49   23   93 1    
    50   24   25 am   BACKBONE|DICT|INTERRES
    51   24   94 1    
    52   25   26 2    
    53   25   27 1    
    54   27   28 1    
    55   27   29 1    
    56   27   95 1    
    57   28   96 1    
    58   28   97 1    
    59   28   98 1    
    60   29   30 am   BACKBONE|DICT|INTERRES
    61   29   99 1    
    62   30   31 2    
    63   30   32 1    
    64   32   33 1    
    65   32   34 1    
    66   32  100 1    
    67   33  101 1    
    68   33  102 1    
    69   33  103 1    
    70   34   35 am   BACKBONE|DICT|INTERRES
    71   34  104 1    
    72   35   36 2    
    73   37   38 2    
    74   37   39 am   BACKBONE|DICT|INTERRES
    75   39   40 1    
    76   39  105 1    
    77   40   41 1    
    78   40   42 1    
    79   40  106 1    
    80   41  107 1    
    81   41  108 1    
    82   41  109 1    
    83   42   43 2    
    84   42   44 am   BACKBONE|DICT|INTERRES
    85   44   45 1    
    86   44  110 1    
    87   45   46 1    
    88   45   47 1    
    89   45  111 1    
    90   46  112 1    
    91   46  113 1    
    92   46  114 1    
    93   47   48 2    
    94   47   49 am   BACKBONE|DICT|INTERRES
    95   49   50 1    
    96   49  115 1    
    97   50   51 1    
    98   50   52 1    
    99   50  116 1    
   100   51  117 1    
   101   51  118 1    
   102   51  119 1    
   103   52   53 2    
   104   52   54 am   BACKBONE|DICT|INTERRES
   105   54   55 1    
   106   54  120 1    
   107   55   56 1    
   108   55   57 1    
   109   55  121 1    
   110   56  122 1    
   111   56  123 1    
   112   56  124 1    
   113   57   58 2    
   114   57   59 am   BACKBONE|DICT|INTERRES
   115   59   60 1    
   116   59  125 1    
   117   60   61 1    
   118   60   62 1    
   119   60  126 1    
   120   61  127 1    
   121   61  128 1    
   122   61  129 1    
   123   62   63 2    
   124   62   64 am   BACKBONE|DICT|INTERRES
   125   64   65 1    
   126   64  130 1    
   127   65   66 1    
   128   65   69 1    
   129   65  131 1    
   130   66   67 am   BACKBONE|DICT|INTERRES
   131   66   68 2    
   132   67  132 1    
   133   67  133 1    
   134   69   70 1    
   135   69  134 1    
   136   69  135 1    
   137   70   71 1    
   138   71  136 1    
   139   71  137 1    
@<TRIPOS>SUBSTRUCTURE
     1 UNK         1 GROUP             0       ****    0 ROOT    
