@<TRIPOS>MOLECULE
3R137
137   139    1
SMALL
USER_CHARGES


@<TRIPOS>ATOM
      1 CA         31.6270   -0.2897    0.0896 C.3       0 UNK        -0.2020 
      2 C          30.2728   -0.9352   -0.1621 C.2       0 UNK         0.4855 
      3 O          29.3884   -0.8547    0.6918 O.2       0 UNK        -0.5197 
      4 N          30.1081   -1.5645   -1.3331 N.am      1 UNK        -0.4892 
      5 CA         28.9094   -2.2529   -1.8370 C.3       1 UNK         0.0835 
      6 C6         28.3683   -3.4043   -0.9358 C.3       12 UNK        -0.0855 
      7 S7         29.6541   -4.5315   -0.2835 S.3       12 UNK        -0.2931 
      8 C8         29.6963   -5.8718   -1.5211 C.3       12 UNK         0.0378 
      9 C9         30.1751   -5.4049   -2.8910 C.ar      12 UNK        -0.0802 
     10 C10        31.3172   -4.6047   -3.0163 C.ar      12 UNK        -0.0944 
     11 C11        31.7134   -4.1239   -4.2664 C.ar      12 UNK        -0.0787 
     12 C12        30.9999   -4.4993   -5.4055 C.ar      12 UNK        -0.0862 
     13 C13        29.8673   -5.3108   -5.2974 C.ar      12 UNK        -0.0733 
     14 C14        29.4606   -5.7629   -4.0388 C.ar      12 UNK        -0.0832 
     15 C15        29.0558   -5.6551   -6.5382 C.3       12 UNK         0.0240 
     16 S16        27.5086   -4.6952   -6.6131 S.3       12 UNK        -0.2522 
     17 C17        28.1297   -2.9831   -6.4833 C.3       12 UNK        -0.0967 
     18 CA         27.3903   -1.9936   -7.4075 C.3       5 UNK         0.0660 
     19 N          25.9438   -2.0023   -7.1786 N.am      5 UNK        -0.4015 
     20 C          25.0412   -1.3855   -7.9515 C.2       4 UNK         0.4946 
     21 O          25.3311   -0.7640   -8.9720 O.2       4 UNK        -0.5353 
     22 CA         23.5728   -1.4272   -7.4886 C.3       4 UNK         0.0277 
     23 CB         22.8415   -2.6124   -8.1381 C.3       4 UNK        -0.1981 
     24 N          23.3996   -1.4829   -6.0311 N.am      4 UNK        -0.4209 
     25 C          23.8837   -0.5841   -5.1618 C.2       3 UNK         0.4942 
     26 O          24.5492    0.3964   -5.5066 O.2       3 UNK        -0.5208 
     27 CA         23.6258   -0.8314   -3.6662 C.3       3 UNK         0.0250 
     28 CB         23.2616   -2.2896   -3.3138 C.3       3 UNK        -0.1990 
     29 N          24.8277   -0.4363   -2.9430 N.am      3 UNK        -0.4232 
     30 C          24.8983    0.1134   -1.7312 C.2       2 UNK         0.4993 
     31 O          23.9218    0.2773   -0.9967 O.2       2 UNK        -0.5286 
     32 CA         26.3039    0.5651   -1.2792 C.3       2 UNK         0.0209 
     33 CB         26.2802    1.2880    0.0808 C.3       2 UNK        -0.1931 
     34 N          27.2972   -0.5136   -1.2114 N.am      2 UNK        -0.4546 
     35 C          27.8015   -1.2480   -2.2135 C.2       1 UNK         0.5154 
     36 O          27.4569   -1.1324   -3.3912 O.2       1 UNK        -0.5181 
     37 C          28.0006   -0.5832   -7.2670 C.2       5 UNK         0.5014 
     38 O          28.8974   -0.2335   -8.0361 O.2       5 UNK        -0.5248 
     39 N          27.5036    0.2109   -6.3078 N.am      6 UNK        -0.4434 
     40 CA         27.9051    1.6046   -6.1144 C.3       6 UNK         0.0363 
     41 CB         27.5203    2.0810   -4.7070 C.3       6 UNK        -0.1936 
     42 C          27.3120    2.5215   -7.1928 C.2       6 UNK         0.5081 
     43 O          28.0034    3.4325   -7.6448 O.2       6 UNK        -0.5248 
     44 N          26.0776    2.2361   -7.6351 N.am      7 UNK        -0.4718 
     45 CA         25.4359    2.9079   -8.7728 C.3       7 UNK         0.0273 
     46 CB         23.9577    2.4970   -8.8586 C.3       7 UNK        -0.1935 
     47 C          26.1648    2.6392  -10.1039 C.2       7 UNK         0.5018 
     48 O          26.3089    3.5556  -10.9132 O.2       7 UNK        -0.5186 
     49 N          26.6582    1.4048  -10.2781 N.am      8 UNK        -0.4240 
     50 CA         27.5359    0.9829  -11.3747 C.3       8 UNK         0.0235 
     51 CB         27.5070   -0.5521  -11.4686 C.3       8 UNK        -0.2000 
     52 C          28.9895    1.4843  -11.2411 C.2       8 UNK         0.4941 
     53 O          29.7646    1.3053  -12.1815 O.2       8 UNK        -0.5273 
     54 N          29.3350    2.0886  -10.0938 N.am      9 UNK        -0.4262 
     55 CA         30.6404    2.6425   -9.7227 C.3       9 UNK         0.0264 
     56 CB         31.0111    3.8370  -10.6281 C.3       9 UNK        -0.1955 
     57 C          31.7571    1.5846   -9.6246 C.2       9 UNK         0.5031 
     58 O          32.8996    1.8696   -9.9899 O.2       9 UNK        -0.5390 
     59 N          31.4259    0.3914   -9.1072 N.am      10 UNK        -0.4204 
     60 CA         32.3900   -0.6828   -8.8414 C.3       10 UNK         0.0237 
     61 CB         31.6422   -2.0023   -8.5925 C.3       10 UNK        -0.1985 
     62 C          33.3147   -0.3589   -7.6545 C.2       10 UNK         0.4970 
     63 O          34.5071   -0.6603   -7.7153 O.2       10 UNK        -0.4914 
     64 N          32.7472    0.2570   -6.6116 N.am      11 UNK        -0.4285 
     65 CA         33.4396    0.6903   -5.3884 C.3       11 UNK         0.1007 
     66 C          32.7387    1.8883   -4.6821 C.2       11 UNK         0.5703 
     67 N          31.8478    2.6184   -5.3455 N.am      11 UNK        -0.7361 
     68 O          33.0168    2.1806   -3.5216 O.2       11 UNK        -0.4986 
     69 C69        33.7859   -0.4906   -4.4352 C.3       12 UNK        -0.0947 
     70 S70        32.3326   -1.4748   -3.9374 S.3       12 UNK        -0.2240 
     71 C71        32.8750   -3.1532   -4.3818 C.3       12 UNK         0.0194 
     72 H72        32.2987   -0.4034   -0.7615 H         1 UNK         0.0906 
     73 H73        32.1015   -0.7427    0.9597 H         1 UNK         0.0906 
     74 H74        31.5045    0.7756    0.2831 H         1 UNK         0.0906 
     75 H75        30.8788   -1.5601   -1.9896 H         1 UNK         0.3140 
     76 H76        29.2218   -2.7075   -2.7782 H         1 UNK         0.1085 
     77 H77        27.6268   -3.9904   -1.4821 H         1 UNK         0.0836 
     78 H78        27.8432   -2.9981   -0.0696 H         1 UNK         0.0836 
     79 H79        30.3686   -6.6542   -1.1668 H         1 UNK         0.0731 
     80 H80        28.7045   -6.3223   -1.5848 H         1 UNK         0.0731 
     81 H81        31.8692   -4.3122   -2.1334 H         1 UNK         0.1312 
     82 H82        31.3064   -4.1292   -6.3738 H         1 UNK         0.1406 
     83 H83        28.5726   -6.3752   -3.9560 H         1 UNK         0.1631 
     84 H84        28.8163   -6.7194   -6.5364 H         1 UNK         0.0717 
     85 H85        29.6352   -5.4722   -7.4447 H         1 UNK         0.0717 
     86 H86        28.0613   -2.6772   -5.4380 H         1 UNK         0.0934 
     87 H87        29.1894   -2.9728   -6.7327 H         1 UNK         0.0934 
     88 H88        27.5551   -2.3113   -8.4393 H         1 UNK         0.0739 
     89 H89        25.6217   -2.5174   -6.3731 H         1 UNK         0.3093 
     90 H90        23.1001   -0.5057   -7.8336 H         1 UNK         0.0818 
     91 H91        22.9356   -2.5800   -9.2247 H         1 UNK         0.0819 
     92 H92        23.2453   -3.5694   -7.8049 H         1 UNK         0.0819 
     93 H93        21.7760   -2.5974   -7.9079 H         1 UNK         0.0819 
     94 H94        22.8680   -2.2611   -5.6677 H         1 UNK         0.3041 
     95 H95        22.8005   -0.1780   -3.3760 H         1 UNK         0.0784 
     96 H96        23.1444   -2.4128   -2.2369 H         1 UNK         0.0793 
     97 H97        22.3154   -2.5881   -3.7664 H         1 UNK         0.0793 
     98 H98        24.0306   -2.9908   -3.6413 H         1 UNK         0.0793 
     99 H99        25.7051   -0.5602   -3.4433 H         1 UNK         0.3024 
    100 H100       26.6490    1.2860   -2.0213 H         1 UNK         0.1171 
    101 H101       25.9619    0.6225    0.8843 H         1 UNK         0.0786 
    102 H102       25.5928    2.1349    0.0645 H         1 UNK         0.0786 
    103 H103       27.2647    1.6783    0.3400 H         1 UNK         0.0786 
    104 H104       27.7301   -0.6608   -0.3034 H         1 UNK         0.2977 
    105 H105       26.7476   -0.1276   -5.7275 H         1 UNK         0.3127 
    106 H106       28.9927    1.6624   -6.1961 H         1 UNK         0.0770 
    107 H107       27.7950    3.1265   -4.5610 H         1 UNK         0.0814 
    108 H108       26.4487    1.9965   -4.5254 H         1 UNK         0.0814 
    109 H109       28.0441    1.5029   -3.9464 H         1 UNK         0.0814 
    110 H110       25.5640    1.4874   -7.1847 H         1 UNK         0.2983 
    111 H111       25.4780    3.9834   -8.5868 H         1 UNK         0.0947 
    112 H112       23.8425    1.4409   -9.0998 H         1 UNK         0.0806 
    113 H113       23.4440    3.0630   -9.6368 H         1 UNK         0.0806 
    114 H114       23.4356    2.6871   -7.9206 H         1 UNK         0.0806 
    115 H115       26.3950    0.6850   -9.6089 H         1 UNK         0.3000 
    116 H116       27.1379    1.3909  -12.3061 H         1 UNK         0.0850 
    117 H117       26.4913   -0.9229  -11.6078 H         1 UNK         0.0810 
    118 H118       27.9122   -1.0162  -10.5690 H         1 UNK         0.0810 
    119 H119       28.0995   -0.9058  -12.3134 H         1 UNK         0.0810 
    120 H120       28.6189    2.1820   -9.3846 H         1 UNK         0.3040 
    121 H121       30.5179    3.0334   -8.7120 H         1 UNK         0.0766 
    122 H122       31.2136    3.5225  -11.6523 H         1 UNK         0.0812 
    123 H123       31.9049    4.3434  -10.2618 H         1 UNK         0.0812 
    124 H124       30.2104    4.5762  -10.6554 H         1 UNK         0.0812 
    125 H125       30.4592    0.2214   -8.8266 H         1 UNK         0.3205 
    126 H126       33.0130   -0.8075   -9.7297 H         1 UNK         0.0754 
    127 H127       32.3422   -2.8310   -8.4785 H         1 UNK         0.0769 
    128 H128       30.9776   -2.2473   -9.4213 H         1 UNK         0.0769 
    129 H129       31.0433   -1.9541   -7.6838 H         1 UNK         0.0769 
    130 H130       31.7526    0.4248   -6.6275 H         1 UNK         0.2981 
    131 H131       34.3919    1.1172   -5.7078 H         1 UNK         0.0541 
    132 H132       31.4148    3.3945   -4.8704 H         1 UNK         0.3459 
    133 H133       31.6737    2.4714   -6.3239 H         1 UNK         0.3459 
    134 H134       34.2862   -0.1326   -3.5340 H         1 UNK         0.0612 
    135 H135       34.5116   -1.1429   -4.9225 H         1 UNK         0.0612 
    136 H136       33.2698   -3.1524   -5.3993 H         1 UNK         0.0624 
    137 H137       33.6908   -3.4603   -3.7257 H         1 UNK         0.0624 
@<TRIPOS>BOND
     1    1    2 1    
     2    1   72 1    
     3    1   73 1    
     4    1   74 1    
     5    2    3 2    
     6    2    4 am   BACKBONE|DICT|INTERRES
     7    4    5 1    
     8    4   75 1    
     9    5    6 1    
    10    5   35 1    
    11    5   76 1    
    12    6    7 1    
    13    6   77 1    
    14    6   78 1    
    15    7    8 1    
    16    8    9 1    
    17    8   79 1    
    18    8   80 1    
    19    9   10 ar   
    20    9   14 ar   
    21   10   11 ar   
    22   10   81 1    
    23   11   12 ar   
    24   11   71 1    
    25   12   13 ar   
    26   12   82 1    
    27   13   14 ar   
    28   13   15 1    
    29   14   83 1    
    30   15   16 1    
    31   15   84 1    
    32   15   85 1    
    33   16   17 1    
    34   17   18 1    
    35   17   86 1    
    36   17   87 1    
    37   18   19 1    
    38   18   37 1    
    39   18   88 1    
    40   19   20 am   BACKBONE|DICT|INTERRES
    41   19   89 1    
    42   20   21 2    
    43   20   22 1    
    44   22   23 1    
    45   22   24 1    
    46   22   90 1    
    47   23   91 1    
    48   23   92 1    
    49   23   93 1    
    50   24   25 am   BACKBONE|DICT|INTERRES
    51   24   94 1    
    52   25   26 2    
    53   25   27 1    
    54   27   28 1    
    55   27   29 1    
    56   27   95 1    
    57   28   96 1    
    58   28   97 1    
    59   28   98 1    
    60   29   30 am   BACKBONE|DICT|INTERRES
    61   29   99 1    
    62   30   31 2    
    63   30   32 1    
    64   32   33 1    
    65   32   34 1    
    66   32  100 1    
    67   33  101 1    
    68   33  102 1    
    69   33  103 1    
    70   34   35 am   BACKBONE|DICT|INTERRES
    71   34  104 1    
    72   35   36 2    
    73   37   38 2    
    74   37   39 am   BACKBONE|DICT|INTERRES
    75   39   40 1    
    76   39  105 1    
    77   40   41 1    
    78   40   42 1    
    79   40  106 1    
    80   41  107 1    
    81   41  108 1    
    82   41  109 1    
    83   42   43 2    
    84   42   44 am   BACKBONE|DICT|INTERRES
    85   44   45 1    
    86   44  110 1    
    87   45   46 1    
    88   45   47 1    
    89   45  111 1    
    90   46  112 1    
    91   46  113 1    
    92   46  114 1    
    93   47   48 2    
    94   47   49 am   BACKBONE|DICT|INTERRES
    95   49   50 1    
    96   49  115 1    
    97   50   51 1    
    98   50   52 1    
    99   50  116 1    
   100   51  117 1    
   101   51  118 1    
   102   51  119 1    
   103   52   53 2    
   104   52   54 am   BACKBONE|DICT|INTERRES
   105   54   55 1    
   106   54  120 1    
   107   55   56 1    
   108   55   57 1    
   109   55  121 1    
   110   56  122 1    
   111   56  123 1    
   112   56  124 1    
   113   57   58 2    
   114   57   59 am   BACKBONE|DICT|INTERRES
   115   59   60 1    
   116   59  125 1    
   117   60   61 1    
   118   60   62 1    
   119   60  126 1    
   120   61  127 1    
   121   61  128 1    
   122   61  129 1    
   123   62   63 2    
   124   62   64 am   BACKBONE|DICT|INTERRES
   125   64   65 1    
   126   64  130 1    
   127   65   66 1    
   128   65   69 1    
   129   65  131 1    
   130   66   67 am   BACKBONE|DICT|INTERRES
   131   66   68 2    
   132   67  132 1    
   133   67  133 1    
   134   69   70 1    
   135   69  134 1    
   136   69  135 1    
   137   70   71 1    
   138   71  136 1    
   139   71  137 1    
@<TRIPOS>SUBSTRUCTURE
     1 UNK         1 GROUP             0       ****    0 ROOT    
