@<TRIPOS>MOLECULE
3R137
137   139    1
SMALL
USER_CHARGES


@<TRIPOS>ATOM
      1 CA         28.6135   -5.5108    0.1938 C.3       0 UNK        -0.2020 
      2 C          27.5890   -4.4811    0.6460 C.2       0 UNK         0.4855 
      3 O          26.6909   -4.8079    1.4218 O.2       0 UNK        -0.5197 
      4 N          27.7143   -3.2386    0.1629 N.am      1 UNK        -0.4892 
      5 CA         26.8133   -2.1181    0.4658 C.3       1 UNK         0.0835 
      6 C6         27.5197   -0.7504    0.2637 C.3       12 UNK        -0.0855 
      7 S7         28.1274   -0.4776   -1.4366 S.3       12 UNK        -0.2931 
      8 C8         29.9248   -0.7104   -1.2679 C.3       12 UNK         0.0378 
      9 C9         30.5159   -1.1431   -2.6001 C.ar      12 UNK        -0.0802 
     10 C10        31.2892   -0.2678   -3.3722 C.ar      12 UNK        -0.0944 
     11 C11        31.7813   -0.6751   -4.6183 C.ar      12 UNK        -0.0787 
     12 C12        31.4960   -1.9602   -5.0853 C.ar      12 UNK        -0.0862 
     13 C13        30.7092   -2.8311   -4.3311 C.ar      12 UNK        -0.0733 
     14 C14        30.2436   -2.4266   -3.0799 C.ar      12 UNK        -0.0832 
     15 C15        30.3193   -4.1892   -4.8884 C.3       12 UNK         0.0240 
     16 S16        29.1379   -4.0345   -6.2665 S.3       12 UNK        -0.2522 
     17 C17        27.7129   -3.1809   -5.5053 C.3       12 UNK        -0.0967 
     18 CA         27.1986   -2.0064   -6.3853 C.3       5 UNK         0.0660 
     19 N          25.7412   -2.0533   -6.5231 N.am      5 UNK        -0.4015 
     20 C          25.0566   -1.6984   -7.6179 C.2       4 UNK         0.4946 
     21 O          25.5828   -1.3081   -8.6601 O.2       4 UNK        -0.5353 
     22 CA         23.5216   -1.7978   -7.5466 C.3       4 UNK         0.0277 
     23 CB         23.0474   -3.1550   -8.0909 C.3       4 UNK        -0.1981 
     24 N          22.9878   -1.6052   -6.1952 N.am      4 UNK        -0.4209 
     25 C          22.9722   -0.4295   -5.5523 C.2       3 UNK         0.4942 
     26 O          23.3708    0.6252   -6.0461 O.2       3 UNK        -0.5208 
     27 CA         22.4479   -0.4324   -4.1042 C.3       3 UNK         0.0250 
     28 CB         20.9243   -0.2290   -4.0900 C.3       3 UNK        -0.1990 
     29 N          22.7877   -1.6208   -3.3074 N.am      3 UNK        -0.4232 
     30 C          24.0198   -2.1143   -3.1179 C.2       2 UNK         0.4993 
     31 O          25.0190   -1.7274   -3.7262 O.2       2 UNK        -0.5286 
     32 CA         24.1629   -3.2699   -2.1188 C.3       2 UNK         0.0209 
     33 CB         24.2756   -4.6087   -2.8658 C.3       2 UNK        -0.1931 
     34 N          25.3510   -3.0867   -1.2830 N.am      2 UNK        -0.4546 
     35 C          25.4580   -2.2012   -0.2803 C.2       1 UNK         0.5154 
     36 O          24.5288   -1.4758    0.0800 O.2       1 UNK        -0.5181 
     37 C          27.6375   -0.6155   -5.8751 C.2       5 UNK         0.5014 
     38 O          28.6281   -0.0675   -6.3637 O.2       5 UNK        -0.5248 
     39 N          26.8307   -0.0261   -4.9756 N.am      6 UNK        -0.4434 
     40 CA         26.9532    1.3294   -4.4210 C.3       6 UNK         0.0363 
     41 CB         25.8306    1.5572   -3.3949 C.3       6 UNK        -0.1936 
     42 C          26.9312    2.4641   -5.4627 C.2       6 UNK         0.5081 
     43 O          27.3389    3.5804   -5.1412 O.2       6 UNK        -0.5248 
     44 N          26.4948    2.1633   -6.6947 N.am      7 UNK        -0.4718 
     45 CA         26.6073    3.0195   -7.8798 C.3       7 UNK         0.0273 
     46 CB         25.8470    2.3555   -9.0394 C.3       7 UNK        -0.1935 
     47 C          28.0626    3.3293   -8.2942 C.2       7 UNK         0.5018 
     48 O          28.2704    4.2313   -9.1051 O.2       7 UNK        -0.5186 
     49 N          29.0320    2.5815   -7.7430 N.am      8 UNK        -0.4240 
     50 CA         30.4875    2.7509   -7.8273 C.3       8 UNK         0.0235 
     51 CB         30.9333    4.1721   -7.4293 C.3       8 UNK        -0.2000 
     52 C          31.1226    2.3022   -9.1513 C.2       8 UNK         0.4941 
     53 O          32.3495    2.2219   -9.2173 O.2       8 UNK        -0.5273 
     54 N          30.3115    1.9459  -10.1572 N.am      9 UNK        -0.4262 
     55 CA         30.7516    1.4242  -11.4578 C.3       9 UNK         0.0264 
     56 CB         29.5263    1.2400  -12.3675 C.3       9 UNK        -0.1955 
     57 C          31.5587    0.1141  -11.3661 C.2       9 UNK         0.5031 
     58 O          32.3868   -0.1499  -12.2379 O.2       9 UNK        -0.5390 
     59 N          31.3194   -0.6646  -10.3028 N.am      10 UNK        -0.4204 
     60 CA         32.0713   -1.8685   -9.9515 C.3       10 UNK         0.0237 
     61 CB         31.2352   -2.6974   -8.9640 C.3       10 UNK        -0.1985 
     62 C          33.4743   -1.5801   -9.3792 C.2       10 UNK         0.4970 
     63 O          34.3285   -2.4643   -9.4503 O.2       10 UNK        -0.4914 
     64 N          33.6935   -0.3772   -8.8304 N.am      11 UNK        -0.4285 
     65 CA         34.9970    0.0910   -8.3322 C.3       11 UNK         0.1007 
     66 C          35.7301    0.9582   -9.3887 C.2       11 UNK         0.5703 
     67 N          35.0340    1.8225  -10.1172 N.am      11 UNK        -0.7361 
     68 O          36.9417    0.8390   -9.5543 O.2       11 UNK        -0.4986 
     69 C69        34.8708    0.8604   -6.9902 C.3       12 UNK        -0.0947 
     70 S70        34.3176   -0.2089   -5.6210 S.3       12 UNK        -0.2240 
     71 C71        32.5714    0.2762   -5.5013 C.3       12 UNK         0.0194 
     72 H72        28.1185   -6.3257   -0.3340 H         1 UNK         0.0906 
     73 H73        29.3618   -5.0804   -0.4714 H         1 UNK         0.0906 
     74 H74        29.1301   -5.9292    1.0573 H         1 UNK         0.0906 
     75 H75        28.4681   -3.0183   -0.4700 H         1 UNK         0.3140 
     76 H76        26.5595   -2.1846    1.5264 H         1 UNK         0.1085 
     77 H77        28.3522   -0.6594    0.9630 H         1 UNK         0.0836 
     78 H78        26.8420    0.0671    0.5176 H         1 UNK         0.0836 
     79 H79        30.3792    0.2174   -0.9171 H         1 UNK         0.0731 
     80 H80        30.1412   -1.4694   -0.5149 H         1 UNK         0.0731 
     81 H81        31.4895    0.7328   -3.0145 H         1 UNK         0.1312 
     82 H82        31.8647   -2.2730   -6.0512 H         1 UNK         0.1406 
     83 H83        29.6274   -3.0960   -2.4973 H         1 UNK         0.1631 
     84 H84        29.8846   -4.8226   -4.1137 H         1 UNK         0.0717 
     85 H85        31.2128   -4.7049   -5.2431 H         1 UNK         0.0717 
     86 H86        26.9394   -3.9415   -5.3885 H         1 UNK         0.0934 
     87 H87        27.9364   -2.8574   -4.4882 H         1 UNK         0.0934 
     88 H88        27.6246   -2.1123   -7.3856 H         1 UNK         0.0739 
     89 H89        25.2268   -2.2758   -5.6790 H         1 UNK         0.3093 
     90 H90        23.1141   -1.0128   -8.1876 H         1 UNK         0.0818 
     91 H91        21.9593   -3.2109   -8.1250 H         1 UNK         0.0819 
     92 H92        23.4095   -3.3149   -9.1075 H         1 UNK         0.0819 
     93 H93        23.4089   -3.9850   -7.4826 H         1 UNK         0.0819 
     94 H94        22.6298   -2.4199   -5.7180 H         1 UNK         0.3041 
     95 H95        22.9003    0.4216   -3.5984 H         1 UNK         0.0784 
     96 H96        20.6433    0.6607   -4.6556 H         1 UNK         0.0793 
     97 H97        20.3988   -1.0760   -4.5328 H         1 UNK         0.0793 
     98 H98        20.5501   -0.0942   -3.0750 H         1 UNK         0.0793 
     99 H99        22.0256   -2.0298   -2.7856 H         1 UNK         0.3024 
    100 H100       23.2841   -3.2987   -1.4705 H         1 UNK         0.1171 
    101 H101       23.3941   -4.7889   -3.4827 H         1 UNK         0.0786 
    102 H102       24.3584   -5.4443   -2.1703 H         1 UNK         0.0786 
    103 H103       25.1452   -4.6336   -3.5240 H         1 UNK         0.0786 
    104 H104       26.1724   -3.6155   -1.5330 H         1 UNK         0.2977 
    105 H105       26.0770   -0.5889   -4.5822 H         1 UNK         0.3127 
    106 H106       27.9142    1.3767   -3.9054 H         1 UNK         0.0770 
    107 H107       24.8599    1.6408   -3.8822 H         1 UNK         0.0814 
    108 H108       25.9949    2.4814   -2.8399 H         1 UNK         0.0814 
    109 H109       25.7711    0.7490   -2.6666 H         1 UNK         0.0814 
    110 H110       26.1392    1.2298   -6.8453 H         1 UNK         0.2983 
    111 H111       26.1283    3.9732   -7.6487 H         1 UNK         0.0947 
    112 H112       25.8651    2.9835   -9.9313 H         1 UNK         0.0806 
    113 H113       24.8003    2.1882   -8.7837 H         1 UNK         0.0806 
    114 H114       26.2829    1.3923   -9.3089 H         1 UNK         0.0806 
    115 H115       28.7365    1.8080   -7.1526 H         1 UNK         0.3000 
    116 H116       30.8819    2.0764   -7.0696 H         1 UNK         0.0850 
    117 H117       32.0186    4.2261   -7.3354 H         1 UNK         0.0810 
    118 H118       30.5103    4.4662   -6.4687 H         1 UNK         0.0810 
    119 H119       30.6385    4.9157   -8.1698 H         1 UNK         0.0810 
    120 H120       29.3181    2.0682  -10.0248 H         1 UNK         0.3040 
    121 H121       31.4047    2.1747  -11.9076 H         1 UNK         0.0766 
    122 H122       28.9992    2.1820  -12.5199 H         1 UNK         0.0812 
    123 H123       28.8186    0.5215  -11.9525 H         1 UNK         0.0812 
    124 H124       29.8223    0.8745  -13.3517 H         1 UNK         0.0812 
    125 H125       30.6004   -0.3733   -9.6573 H         1 UNK         0.3205 
    126 H126       32.2119   -2.4622  -10.8573 H         1 UNK         0.0754 
    127 H127       30.3300   -3.0781   -9.4373 H         1 UNK         0.0769 
    128 H128       30.9297   -2.1066   -8.1008 H         1 UNK         0.0769 
    129 H129       31.7917   -3.5601   -8.5947 H         1 UNK         0.0769 
    130 H130       32.9745    0.3328   -8.8869 H         1 UNK         0.2981 
    131 H131       35.6403   -0.7707   -8.1434 H         1 UNK         0.0541 
    132 H132       34.0471    1.9743   -9.9264 H         1 UNK         0.3459 
    133 H133       35.5064    2.3815  -10.8086 H         1 UNK         0.3459 
    134 H134       34.1981    1.7142   -7.0921 H         1 UNK         0.0612 
    135 H135       35.8383    1.2723   -6.6969 H         1 UNK         0.0612 
    136 H136       32.5020    1.3018   -5.1358 H         1 UNK         0.0624 
    137 H137       32.1337    0.2636   -6.4993 H         1 UNK         0.0624 
@<TRIPOS>BOND
     1    1    2 1    
     2    1   72 1    
     3    1   73 1    
     4    1   74 1    
     5    2    3 2    
     6    2    4 am   BACKBONE|DICT|INTERRES
     7    4    5 1    
     8    4   75 1    
     9    5    6 1    
    10    5   35 1    
    11    5   76 1    
    12    6    7 1    
    13    6   77 1    
    14    6   78 1    
    15    7    8 1    
    16    8    9 1    
    17    8   79 1    
    18    8   80 1    
    19    9   10 ar   
    20    9   14 ar   
    21   10   11 ar   
    22   10   81 1    
    23   11   12 ar   
    24   11   71 1    
    25   12   13 ar   
    26   12   82 1    
    27   13   14 ar   
    28   13   15 1    
    29   14   83 1    
    30   15   16 1    
    31   15   84 1    
    32   15   85 1    
    33   16   17 1    
    34   17   18 1    
    35   17   86 1    
    36   17   87 1    
    37   18   19 1    
    38   18   37 1    
    39   18   88 1    
    40   19   20 am   BACKBONE|DICT|INTERRES
    41   19   89 1    
    42   20   21 2    
    43   20   22 1    
    44   22   23 1    
    45   22   24 1    
    46   22   90 1    
    47   23   91 1    
    48   23   92 1    
    49   23   93 1    
    50   24   25 am   BACKBONE|DICT|INTERRES
    51   24   94 1    
    52   25   26 2    
    53   25   27 1    
    54   27   28 1    
    55   27   29 1    
    56   27   95 1    
    57   28   96 1    
    58   28   97 1    
    59   28   98 1    
    60   29   30 am   BACKBONE|DICT|INTERRES
    61   29   99 1    
    62   30   31 2    
    63   30   32 1    
    64   32   33 1    
    65   32   34 1    
    66   32  100 1    
    67   33  101 1    
    68   33  102 1    
    69   33  103 1    
    70   34   35 am   BACKBONE|DICT|INTERRES
    71   34  104 1    
    72   35   36 2    
    73   37   38 2    
    74   37   39 am   BACKBONE|DICT|INTERRES
    75   39   40 1    
    76   39  105 1    
    77   40   41 1    
    78   40   42 1    
    79   40  106 1    
    80   41  107 1    
    81   41  108 1    
    82   41  109 1    
    83   42   43 2    
    84   42   44 am   BACKBONE|DICT|INTERRES
    85   44   45 1    
    86   44  110 1    
    87   45   46 1    
    88   45   47 1    
    89   45  111 1    
    90   46  112 1    
    91   46  113 1    
    92   46  114 1    
    93   47   48 2    
    94   47   49 am   BACKBONE|DICT|INTERRES
    95   49   50 1    
    96   49  115 1    
    97   50   51 1    
    98   50   52 1    
    99   50  116 1    
   100   51  117 1    
   101   51  118 1    
   102   51  119 1    
   103   52   53 2    
   104   52   54 am   BACKBONE|DICT|INTERRES
   105   54   55 1    
   106   54  120 1    
   107   55   56 1    
   108   55   57 1    
   109   55  121 1    
   110   56  122 1    
   111   56  123 1    
   112   56  124 1    
   113   57   58 2    
   114   57   59 am   BACKBONE|DICT|INTERRES
   115   59   60 1    
   116   59  125 1    
   117   60   61 1    
   118   60   62 1    
   119   60  126 1    
   120   61  127 1    
   121   61  128 1    
   122   61  129 1    
   123   62   63 2    
   124   62   64 am   BACKBONE|DICT|INTERRES
   125   64   65 1    
   126   64  130 1    
   127   65   66 1    
   128   65   69 1    
   129   65  131 1    
   130   66   67 am   BACKBONE|DICT|INTERRES
   131   66   68 2    
   132   67  132 1    
   133   67  133 1    
   134   69   70 1    
   135   69  134 1    
   136   69  135 1    
   137   70   71 1    
   138   71  136 1    
   139   71  137 1    
@<TRIPOS>SUBSTRUCTURE
     1 UNK         1 GROUP             0       ****    0 ROOT    
