@<TRIPOS>MOLECULE
3R137
137   139    1
SMALL
USER_CHARGES


@<TRIPOS>ATOM
      1 CA         25.6026   -4.8170   -0.4791 C.3       0 UNK        -0.2020 
      2 C          26.7850   -4.3098    0.3452 C.2       0 UNK         0.4855 
      3 O          26.7966   -4.5299    1.5542 O.2       0 UNK        -0.5197 
      4 N          27.7931   -3.6257   -0.2200 N.am      1 UNK        -0.4892 
      5 CA         28.0153   -3.2474   -1.6271 C.3       1 UNK         0.0835 
      6 C6         28.1617   -4.4569   -2.5955 C.3       12 UNK        -0.0855 
      7 S7         29.7266   -5.3547   -2.3150 S.3       12 UNK        -0.2931 
      8 C8         30.6731   -4.9547   -3.8235 C.3       12 UNK         0.0378 
      9 C9         31.2956   -3.5637   -3.7768 C.ar      12 UNK        -0.0802 
     10 C10        32.6461   -3.4043   -3.4464 C.ar      12 UNK        -0.0944 
     11 C11        33.2336   -2.1340   -3.4527 C.ar      12 UNK        -0.0787 
     12 C12        32.4503   -1.0138   -3.7479 C.ar      12 UNK        -0.0862 
     13 C13        31.1082   -1.1625   -4.0959 C.ar      12 UNK        -0.0733 
     14 C14        30.5387   -2.4375   -4.1135 C.ar      12 UNK        -0.0832 
     15 C15        30.2799    0.0426   -4.5001 C.3       12 UNK         0.0240 
     16 S16        29.2366    0.6182   -3.1224 S.3       12 UNK        -0.2522 
     17 C17        28.1041    1.8348   -3.8887 C.3       12 UNK        -0.0967 
     18 CA         27.6377    1.5099   -5.3292 C.3       5 UNK         0.0660 
     19 N          27.0635    0.1645   -5.4686 N.am      5 UNK        -0.4015 
     20 C          26.8348   -0.4338   -6.6468 C.2       4 UNK         0.4946 
     21 O          27.1666    0.0608   -7.7234 O.2       4 UNK        -0.5353 
     22 CA         26.0854   -1.7757   -6.6402 C.3       4 UNK         0.0277 
     23 CB         27.0623   -2.9601   -6.6008 C.3       4 UNK        -0.1981 
     24 N          25.1641   -1.8692   -5.5090 N.am      4 UNK        -0.4209 
     25 C          23.9143   -1.3874   -5.5065 C.2       3 UNK         0.4942 
     26 O          23.3779   -0.8733   -6.4880 O.2       3 UNK        -0.5208 
     27 CA         23.1369   -1.4703   -4.1790 C.3       3 UNK         0.0250 
     28 CB         22.3707   -2.7995   -4.0876 C.3       3 UNK        -0.1990 
     29 N          23.9805   -1.3133   -2.9887 N.am      3 UNK        -0.4232 
     30 C          24.6672   -0.2025   -2.6878 C.2       2 UNK         0.4993 
     31 O          24.6557    0.8157   -3.3795 O.2       2 UNK        -0.5286 
     32 CA         25.5601   -0.2455   -1.4354 C.3       2 UNK         0.0209 
     33 CB         24.7260    0.0436   -0.1771 C.3       2 UNK        -0.1931 
     34 N          26.3401   -1.4758   -1.2291 N.am      2 UNK        -0.4546 
     35 C          27.0598   -2.1471   -2.1429 C.2       1 UNK         0.5154 
     36 O          27.0166   -1.9079   -3.3497 O.2       1 UNK        -0.5181 
     37 C          26.6755    2.5871   -5.8647 C.2       5 UNK         0.5014 
     38 O          27.1258    3.5073   -6.5468 O.2       5 UNK        -0.5248 
     39 N          25.3667    2.4144   -5.6269 N.am      6 UNK        -0.4434 
     40 CA         24.2921    3.2156   -6.2233 C.3       6 UNK         0.0363 
     41 CB         22.9502    2.8086   -5.5947 C.3       6 UNK        -0.1936 
     42 C          24.2226    3.1069   -7.7605 C.2       6 UNK         0.5081 
     43 O          23.8040    4.0623   -8.4138 O.2       6 UNK        -0.5248 
     44 N          24.6592    1.9652   -8.3104 N.am      7 UNK        -0.4718 
     45 CA         24.8025    1.7181   -9.7483 C.3       7 UNK         0.0273 
     46 CB         24.5472    0.2253  -10.0209 C.3       7 UNK        -0.1935 
     47 C          26.1782    2.1488  -10.3005 C.2       7 UNK         0.5018 
     48 O          26.4059    1.9972  -11.5015 O.2       7 UNK        -0.5186 
     49 N          27.0624    2.6678   -9.4328 N.am      8 UNK        -0.4240 
     50 CA         28.4315    3.1209   -9.7005 C.3       8 UNK         0.0235 
     51 CB         28.4309    4.3567  -10.6264 C.3       8 UNK        -0.2000 
     52 C          29.3676    1.9966  -10.1880 C.2       8 UNK         0.4941 
     53 O          30.1697    2.2208  -11.0966 O.2       8 UNK        -0.5273 
     54 N          29.2667    0.8090   -9.5695 N.am      9 UNK        -0.4262 
     55 CA         30.0816   -0.3694   -9.8955 C.3       9 UNK         0.0264 
     56 CB         29.5190   -1.5985   -9.1673 C.3       9 UNK        -0.1955 
     57 C          31.5849   -0.2228   -9.5915 C.2       9 UNK         0.5031 
     58 O          32.3839   -0.9104  -10.2287 O.2       9 UNK        -0.5390 
     59 N          31.9417    0.6397   -8.6247 N.am      10 UNK        -0.4204 
     60 CA         33.3102    1.0074   -8.2209 C.3       10 UNK         0.0237 
     61 CB         33.9396    1.9305   -9.2859 C.3       10 UNK        -0.1985 
     62 C          34.2076   -0.2025   -7.8770 C.2       10 UNK         0.4970 
     63 O          35.3542   -0.2719   -8.3237 O.2       10 UNK        -0.4914 
     64 N          33.6433   -1.1416   -7.1082 N.am      11 UNK        -0.4285 
     65 CA         34.2305   -2.4370   -6.7220 C.3       11 UNK         0.1007 
     66 C          34.3484   -3.4759   -7.8794 C.2       11 UNK         0.5703 
     67 N          33.8183   -3.2273   -9.0718 N.am      11 UNK        -0.7361 
     68 O          34.9041   -4.5544   -7.6838 O.2       11 UNK        -0.4986 
     69 C69        35.5513   -2.3366   -5.8932 C.3       12 UNK        -0.0947 
     70 S70        35.5611   -1.0944   -4.5524 S.3       12 UNK        -0.2240 
     71 C71        34.7233   -1.9686   -3.1869 C.3       12 UNK         0.0194 
     72 H72        25.4391   -4.2626   -1.3994 H         1 UNK         0.0906 
     73 H73        25.7506   -5.8664   -0.7322 H         1 UNK         0.0906 
     74 H74        24.6857   -4.7442    0.1055 H         1 UNK         0.0906 
     75 H75        28.5388   -3.3299    0.3958 H         1 UNK         0.3140 
     76 H76        28.9795   -2.7353   -1.6240 H         1 UNK         0.1085 
     77 H77        28.1216   -4.1514   -3.6402 H         1 UNK         0.0836 
     78 H78        27.3409   -5.1635   -2.4861 H         1 UNK         0.0836 
     79 H79        30.0345   -5.0524   -4.7028 H         1 UNK         0.0731 
     80 H80        31.4563   -5.7048   -3.9437 H         1 UNK         0.0731 
     81 H81        33.2467   -4.2729   -3.2129 H         1 UNK         0.1312 
     82 H82        32.9001   -0.0302   -3.7486 H         1 UNK         0.1406 
     83 H83        29.5020   -2.5435   -4.3924 H         1 UNK         0.1631 
     84 H84        29.6780   -0.2513   -5.3576 H         1 UNK         0.0717 
     85 H85        30.9194    0.8611   -4.8343 H         1 UNK         0.0717 
     86 H86        27.2426    1.9444   -3.2285 H         1 UNK         0.0934 
     87 H87        28.6096    2.8025   -3.8745 H         1 UNK         0.0934 
     88 H88        28.5127    1.5613   -5.9795 H         1 UNK         0.0739 
     89 H89        26.8404   -0.3338   -4.6137 H         1 UNK         0.3093 
     90 H90        25.5163   -1.8434   -7.5697 H         1 UNK         0.0818 
     91 H91        27.7178   -2.9172   -5.7336 H         1 UNK         0.0819 
     92 H92        26.5298   -3.9107   -6.5695 H         1 UNK         0.0819 
     93 H93        27.6933   -2.9782   -7.4880 H         1 UNK         0.0819 
     94 H94        25.5628   -2.2000   -4.6363 H         1 UNK         0.3041 
     95 H95        22.4097   -0.6554   -4.1778 H         1 UNK         0.0784 
     96 H96        23.0464   -3.6552   -4.0560 H         1 UNK         0.0793 
     97 H97        21.7167   -2.9324   -4.9507 H         1 UNK         0.0793 
     98 H98        21.7407   -2.8347   -3.1985 H         1 UNK         0.0793 
     99 H99        24.0537   -2.1055   -2.3679 H         1 UNK         0.3024 
    100 H100       26.2864    0.5616   -1.5440 H         1 UNK         0.1171 
    101 H101       25.3609    0.1763    0.6991 H         1 UNK         0.0786 
    102 H102       24.1455    0.9603   -0.2933 H         1 UNK         0.0786 
    103 H103       24.0234   -0.7629    0.0365 H         1 UNK         0.0786 
    104 H104       26.4606   -1.7601   -0.2672 H         1 UNK         0.2977 
    105 H105       25.0824    1.6830   -4.9768 H         1 UNK         0.3127 
    106 H106       24.4838    4.2621   -5.9772 H         1 UNK         0.0770 
    107 H107       22.7144    1.7622   -5.7921 H         1 UNK         0.0814 
    108 H108       22.1324    3.4095   -5.9947 H         1 UNK         0.0814 
    109 H109       22.9589    2.9506   -4.5138 H         1 UNK         0.0814 
    110 H110       24.9879    1.2311   -7.6983 H         1 UNK         0.2983 
    111 H111       24.0462    2.2932  -10.2871 H         1 UNK         0.0947 
    112 H112       24.5270    0.0227  -11.0925 H         1 UNK         0.0806 
    113 H113       23.5890   -0.0968   -9.6125 H         1 UNK         0.0806 
    114 H114       25.3250   -0.4040   -9.5889 H         1 UNK         0.0806 
    115 H115       26.7741    2.7468   -8.4644 H         1 UNK         0.3000 
    116 H116       28.8327    3.4408   -8.7378 H         1 UNK         0.0850 
    117 H117       29.4326    4.7786  -10.7161 H         1 UNK         0.0810 
    118 H118       27.7837    5.1428  -10.2373 H         1 UNK         0.0810 
    119 H119       28.0920    4.1097  -11.6329 H         1 UNK         0.0810 
    120 H120       28.5321    0.6746   -8.8762 H         1 UNK         0.3040 
    121 H121       29.9883   -0.5424  -10.9698 H         1 UNK         0.0766 
    122 H122       28.4808   -1.7779   -9.4470 H         1 UNK         0.0812 
    123 H123       29.5637   -1.4785   -8.0843 H         1 UNK         0.0812 
    124 H124       30.0820   -2.4981   -9.4205 H         1 UNK         0.0812 
    125 H125       31.1970    1.1353   -8.1563 H         1 UNK         0.3205 
    126 H126       33.2176    1.5843   -7.2994 H         1 UNK         0.0754 
    127 H127       34.9112    2.3036   -8.9595 H         1 UNK         0.0769 
    128 H128       33.3091    2.7981   -9.4810 H         1 UNK         0.0769 
    129 H129       34.0901    1.4085  -10.2318 H         1 UNK         0.0769 
    130 H130       32.6925   -0.9984   -6.8045 H         1 UNK         0.2981 
    131 H131       33.4809   -2.8804   -6.0699 H         1 UNK         0.0541 
    132 H132       33.3700   -2.3421   -9.2841 H         1 UNK         0.3459 
    133 H133       33.9009   -3.9247   -9.7936 H         1 UNK         0.3459 
    134 H134       36.3843   -2.0953   -6.5553 H         1 UNK         0.0612 
    135 H135       35.7946   -3.3059   -5.4546 H         1 UNK         0.0612 
    136 H136       34.8550   -1.3954   -2.2685 H         1 UNK         0.0624 
    137 H137       35.2075   -2.9329   -3.0252 H         1 UNK         0.0624 
@<TRIPOS>BOND
     1    1    2 1    
     2    1   72 1    
     3    1   73 1    
     4    1   74 1    
     5    2    3 2    
     6    2    4 am   BACKBONE|DICT|INTERRES
     7    4    5 1    
     8    4   75 1    
     9    5    6 1    
    10    5   35 1    
    11    5   76 1    
    12    6    7 1    
    13    6   77 1    
    14    6   78 1    
    15    7    8 1    
    16    8    9 1    
    17    8   79 1    
    18    8   80 1    
    19    9   10 ar   
    20    9   14 ar   
    21   10   11 ar   
    22   10   81 1    
    23   11   12 ar   
    24   11   71 1    
    25   12   13 ar   
    26   12   82 1    
    27   13   14 ar   
    28   13   15 1    
    29   14   83 1    
    30   15   16 1    
    31   15   84 1    
    32   15   85 1    
    33   16   17 1    
    34   17   18 1    
    35   17   86 1    
    36   17   87 1    
    37   18   19 1    
    38   18   37 1    
    39   18   88 1    
    40   19   20 am   BACKBONE|DICT|INTERRES
    41   19   89 1    
    42   20   21 2    
    43   20   22 1    
    44   22   23 1    
    45   22   24 1    
    46   22   90 1    
    47   23   91 1    
    48   23   92 1    
    49   23   93 1    
    50   24   25 am   BACKBONE|DICT|INTERRES
    51   24   94 1    
    52   25   26 2    
    53   25   27 1    
    54   27   28 1    
    55   27   29 1    
    56   27   95 1    
    57   28   96 1    
    58   28   97 1    
    59   28   98 1    
    60   29   30 am   BACKBONE|DICT|INTERRES
    61   29   99 1    
    62   30   31 2    
    63   30   32 1    
    64   32   33 1    
    65   32   34 1    
    66   32  100 1    
    67   33  101 1    
    68   33  102 1    
    69   33  103 1    
    70   34   35 am   BACKBONE|DICT|INTERRES
    71   34  104 1    
    72   35   36 2    
    73   37   38 2    
    74   37   39 am   BACKBONE|DICT|INTERRES
    75   39   40 1    
    76   39  105 1    
    77   40   41 1    
    78   40   42 1    
    79   40  106 1    
    80   41  107 1    
    81   41  108 1    
    82   41  109 1    
    83   42   43 2    
    84   42   44 am   BACKBONE|DICT|INTERRES
    85   44   45 1    
    86   44  110 1    
    87   45   46 1    
    88   45   47 1    
    89   45  111 1    
    90   46  112 1    
    91   46  113 1    
    92   46  114 1    
    93   47   48 2    
    94   47   49 am   BACKBONE|DICT|INTERRES
    95   49   50 1    
    96   49  115 1    
    97   50   51 1    
    98   50   52 1    
    99   50  116 1    
   100   51  117 1    
   101   51  118 1    
   102   51  119 1    
   103   52   53 2    
   104   52   54 am   BACKBONE|DICT|INTERRES
   105   54   55 1    
   106   54  120 1    
   107   55   56 1    
   108   55   57 1    
   109   55  121 1    
   110   56  122 1    
   111   56  123 1    
   112   56  124 1    
   113   57   58 2    
   114   57   59 am   BACKBONE|DICT|INTERRES
   115   59   60 1    
   116   59  125 1    
   117   60   61 1    
   118   60   62 1    
   119   60  126 1    
   120   61  127 1    
   121   61  128 1    
   122   61  129 1    
   123   62   63 2    
   124   62   64 am   BACKBONE|DICT|INTERRES
   125   64   65 1    
   126   64  130 1    
   127   65   66 1    
   128   65   69 1    
   129   65  131 1    
   130   66   67 am   BACKBONE|DICT|INTERRES
   131   66   68 2    
   132   67  132 1    
   133   67  133 1    
   134   69   70 1    
   135   69  134 1    
   136   69  135 1    
   137   70   71 1    
   138   71  136 1    
   139   71  137 1    
@<TRIPOS>SUBSTRUCTURE
     1 UNK         1 GROUP             0       ****    0 ROOT    
