@<TRIPOS>MOLECULE
3R137
137   139    1
SMALL
USER_CHARGES


@<TRIPOS>ATOM
      1 CA         29.1396   -6.0902   -0.5939 C.3       0 UNK        -0.2020 
      2 C          27.9498   -5.3196   -0.0418 C.2       0 UNK         0.4855 
      3 O          27.0344   -5.9239    0.5164 O.2       0 UNK        -0.5197 
      4 N          27.9613   -3.9881   -0.1934 N.am      1 UNK        -0.4892 
      5 CA         26.9336   -3.0533    0.2938 C.3       1 UNK         0.0835 
      6 C6         27.3370   -1.5616    0.1078 C.3       12 UNK        -0.0855 
      7 S7         29.0773   -1.1879    0.5315 S.3       12 UNK        -0.2931 
      8 C8         29.5307    0.0313   -0.7583 C.3       12 UNK         0.0378 
      9 C9         30.0175   -0.5630   -2.0838 C.ar      12 UNK        -0.0802 
     10 C10        30.9759    0.1313   -2.8317 C.ar      12 UNK        -0.0944 
     11 C11        31.4213   -0.3640   -4.0621 C.ar      12 UNK        -0.0787 
     12 C12        30.9105   -1.5712   -4.5474 C.ar      12 UNK        -0.0862 
     13 C13        29.9607   -2.2800   -3.8103 C.ar      12 UNK        -0.0733 
     14 C14        29.5097   -1.7625   -2.5953 C.ar      12 UNK        -0.0832 
     15 C15        29.4322   -3.6194   -4.2960 C.3       12 UNK         0.0240 
     16 S16        27.7850   -3.4555   -5.0451 S.3       12 UNK        -0.2522 
     17 C17        28.1972   -3.1577   -6.8024 C.3       12 UNK        -0.0967 
     18 CA         27.5258   -1.9024   -7.4112 C.3       5 UNK         0.0660 
     19 N          26.0940   -1.8476   -7.1054 N.am      5 UNK        -0.4015 
     20 C          25.1994   -1.0686   -7.7247 C.2       4 UNK         0.4946 
     21 O          25.4743   -0.3208   -8.6611 O.2       4 UNK        -0.5353 
     22 CA         23.7675   -1.0906   -7.1644 C.3       4 UNK         0.0277 
     23 CB         22.9934   -2.3078   -7.6940 C.3       4 UNK        -0.1981 
     24 N          23.7244   -1.0781   -5.6983 N.am      4 UNK        -0.4209 
     25 C          24.2290   -0.1102   -4.9233 C.2       3 UNK         0.4942 
     26 O          24.7966    0.8851   -5.3706 O.2       3 UNK        -0.5208 
     27 CA         24.1302   -0.2811   -3.3986 C.3       3 UNK         0.0250 
     28 CB         22.7751    0.2274   -2.8709 C.3       3 UNK        -0.1990 
     29 N          24.4350   -1.6326   -2.9047 N.am      3 UNK        -0.4232 
     30 C          23.7458   -2.7737   -3.0584 C.2       2 UNK         0.4993 
     31 O          22.7234   -2.8647   -3.7393 O.2       2 UNK        -0.5286 
     32 CA         24.2990   -4.0361   -2.3664 C.3       2 UNK         0.0209 
     33 CB         24.5853   -5.1441   -3.3949 C.3       2 UNK        -0.1931 
     34 N          25.5142   -3.7934   -1.5787 N.am      2 UNK        -0.4546 
     35 C          25.5412   -3.2851   -0.3366 C.2       1 UNK         0.5154 
     36 O          24.5300   -2.9700    0.2912 O.2       1 UNK        -0.5181 
     37 C          28.2723   -0.6019   -7.0469 C.2       5 UNK         0.5014 
     38 O          29.2239   -0.2411   -7.7434 O.2       5 UNK        -0.5248 
     39 N          27.8177    0.0961   -5.9962 N.am      6 UNK        -0.4434 
     40 CA         28.3288    1.4092   -5.6028 C.3       6 UNK         0.0363 
     41 CB         27.8861    1.7430   -4.1689 C.3       6 UNK        -0.1936 
     42 C          27.8752    2.4960   -6.5888 C.2       6 UNK         0.5081 
     43 O          28.6992    3.3018   -7.0179 O.2       6 UNK        -0.5248 
     44 N          26.5889    2.4678   -6.9689 N.am      7 UNK        -0.4718 
     45 CA         25.9840    3.3571   -7.9660 C.3       7 UNK         0.0273 
     46 CB         24.4627    3.1398   -7.9913 C.3       7 UNK        -0.1935 
     47 C          26.5853    3.1833   -9.3717 C.2       7 UNK         0.5018 
     48 O          26.8166    4.1790  -10.0581 O.2       7 UNK        -0.5186 
     49 N          26.8660    1.9300   -9.7563 N.am      8 UNK        -0.4240 
     50 CA         27.5765    1.5672  -10.9866 C.3       8 UNK         0.0235 
     51 CB         27.3565    0.0717  -11.2692 C.3       8 UNK        -0.2000 
     52 C          29.0851    1.8817  -10.9507 C.2       8 UNK         0.4941 
     53 O          29.7222    1.8290  -12.0034 O.2       8 UNK        -0.5273 
     54 N          29.6264    2.1840   -9.7600 N.am      9 UNK        -0.4262 
     55 CA         31.0329    2.4638   -9.4581 C.3       9 UNK         0.0264 
     56 CB         31.4883    3.7822  -10.1189 C.3       9 UNK        -0.1955 
     57 C          31.9537    1.2730   -9.7806 C.2       9 UNK         0.5031 
     58 O          33.0131    1.4555  -10.3851 O.2       9 UNK        -0.5390 
     59 N          31.5493    0.0700   -9.3427 N.am      10 UNK        -0.4204 
     60 CA         32.2728   -1.1937   -9.5471 C.3       10 UNK         0.0237 
     61 CB         31.4212   -2.3537   -9.0080 C.3       10 UNK        -0.1985 
     62 C          33.6815   -1.2296   -8.9215 C.2       10 UNK         0.4970 
     63 O          34.5175   -2.0205   -9.3595 O.2       10 UNK        -0.4914 
     64 N          33.9170   -0.3655   -7.9279 N.am      11 UNK        -0.4285 
     65 CA         35.2214   -0.1080   -7.3046 C.3       11 UNK         0.1007 
     66 C          36.2200    0.6697   -8.2132 C.2       11 UNK         0.5703 
     67 N          35.8022    1.2549   -9.3312 N.am      11 UNK        -0.7361 
     68 O          37.4057    0.7367   -7.8975 O.2       11 UNK        -0.4986 
     69 C69        35.0567    0.6005   -5.9334 C.3       12 UNK        -0.0947 
     70 S70        34.0904   -0.3864   -4.7428 S.3       12 UNK        -0.2240 
     71 C71        32.4546    0.3993   -4.8728 C.3       12 UNK         0.0194 
     72 H72        29.8934   -5.4292   -1.0213 H         1 UNK         0.0906 
     73 H73        28.8115   -6.7789   -1.3719 H         1 UNK         0.0906 
     74 H74        29.6104   -6.6711    0.1988 H         1 UNK         0.0906 
     75 H75        28.7906   -3.5499   -0.5667 H         1 UNK         0.3140 
     76 H76        26.8278   -3.2401    1.3649 H         1 UNK         0.1085 
     77 H77        26.7027   -0.9305    0.7338 H         1 UNK         0.0836 
     78 H78        27.1484   -1.2302   -0.9146 H         1 UNK         0.0836 
     79 H79        28.6854    0.6935   -0.9506 H         1 UNK         0.0731 
     80 H80        30.3164    0.6619   -0.3393 H         1 UNK         0.0731 
     81 H81        31.3729    1.0656   -2.4587 H         1 UNK         0.1312 
     82 H82        31.2637   -1.9615   -5.4916 H         1 UNK         0.1406 
     83 H83        28.7575   -2.3110   -2.0585 H         1 UNK         0.1631 
     84 H84        29.3594   -4.3048   -3.4504 H         1 UNK         0.0717 
     85 H85        30.1268   -4.0866   -4.9957 H         1 UNK         0.0717 
     86 H86        29.2784   -3.1220   -6.9404 H         1 UNK         0.0934 
     87 H87        27.8706   -4.0380   -7.3584 H         1 UNK         0.0934 
     88 H88        27.6104   -1.9954   -8.4960 H         1 UNK         0.0739 
     89 H89        25.7871   -2.4289   -6.3390 H         1 UNK         0.3093 
     90 H90        23.2653   -0.1867   -7.5154 H         1 UNK         0.0818 
     91 H91        21.9492   -2.2785   -7.3822 H         1 UNK         0.0819 
     92 H92        23.0038   -2.3327   -8.7847 H         1 UNK         0.0819 
     93 H93        23.4213   -3.2470   -7.3410 H         1 UNK         0.0819 
     94 H94        23.2560   -1.8500   -5.2284 H         1 UNK         0.3041 
     95 H95        24.9013    0.3617   -2.9705 H         1 UNK         0.0784 
     96 H96        22.6126    1.2673   -3.1579 H         1 UNK         0.0793 
     97 H97        21.9381   -0.3500   -3.2647 H         1 UNK         0.0793 
     98 H98        22.7315    0.1812   -1.7827 H         1 UNK         0.0793 
     99 H99        25.2810   -1.7022   -2.3600 H         1 UNK         0.3024 
    100 H100       23.5148   -4.3934   -1.6947 H         1 UNK         0.1171 
    101 H101       23.6835   -5.4070   -3.9497 H         1 UNK         0.0786 
    102 H102       24.9389   -6.0540   -2.9094 H         1 UNK         0.0786 
    103 H103       25.3358   -4.8388   -4.1233 H         1 UNK         0.0786 
    104 H104       26.3929   -4.0419   -2.0105 H         1 UNK         0.2977 
    105 H105       27.0114   -0.2477   -5.4973 H         1 UNK         0.3127 
    106 H106       29.4201    1.3665   -5.6180 H         1 UNK         0.0770 
    107 H107       26.8159    1.9360   -4.1005 H         1 UNK         0.0814 
    108 H108       28.3981    2.6352   -3.8070 H         1 UNK         0.0814 
    109 H109       28.1211    0.9321   -3.4821 H         1 UNK         0.0814 
    110 H110       25.9682    1.7954   -6.5226 H         1 UNK         0.2983 
    111 H111       26.1777    4.3847   -7.6511 H         1 UNK         0.0947 
    112 H112       23.9831    3.8156   -8.7006 H         1 UNK         0.0806 
    113 H113       24.0196    3.3270   -7.0129 H         1 UNK         0.0806 
    114 H114       24.2051    2.1215   -8.2839 H         1 UNK         0.0806 
    115 H115       26.5473    1.1601   -9.1715 H         1 UNK         0.3000 
    116 H116       27.1447    2.1393  -11.8104 H         1 UNK         0.0850 
    117 H117       27.8288   -0.2249  -12.2067 H         1 UNK         0.0810 
    118 H118       26.2957   -0.1654  -11.3525 H         1 UNK         0.0810 
    119 H119       27.7789   -0.5507  -10.4799 H         1 UNK         0.0810 
    120 H120       29.0095    2.2028   -8.9573 H         1 UNK         0.3040 
    121 H121       31.0874    2.6043   -8.3775 H         1 UNK         0.0766 
    122 H122       31.5056    3.7070  -11.2066 H         1 UNK         0.0812 
    123 H123       30.8293    4.6075   -9.8494 H         1 UNK         0.0812 
    124 H124       32.4947    4.0526   -9.7968 H         1 UNK         0.0812 
    125 H125       30.6687    0.0095   -8.8298 H         1 UNK         0.3205 
    126 H126       32.3944   -1.3276  -10.6238 H         1 UNK         0.0754 
    127 H127       31.8985   -3.3150   -9.2035 H         1 UNK         0.0769 
    128 H128       30.4375   -2.3781   -9.4775 H         1 UNK         0.0769 
    129 H129       31.2788   -2.2727   -7.9306 H         1 UNK         0.0769 
    130 H130       33.1671    0.2452   -7.6482 H         1 UNK         0.2981 
    131 H131       35.6861   -1.0783   -7.1191 H         1 UNK         0.0541 
    132 H132       34.8294    1.2180   -9.6185 H         1 UNK         0.3459 
    133 H133       36.4698    1.7476   -9.9024 H         1 UNK         0.3459 
    134 H134       34.5967    1.5827   -6.0567 H         1 UNK         0.0612 
    135 H135       36.0327    0.7792   -5.4784 H         1 UNK         0.0612 
    136 H136       32.5235    1.4345   -4.5350 H         1 UNK         0.0624 
    137 H137       32.1362    0.4327   -5.9151 H         1 UNK         0.0624 
@<TRIPOS>BOND
     1    1    2 1    
     2    1   72 1    
     3    1   73 1    
     4    1   74 1    
     5    2    3 2    
     6    2    4 am   BACKBONE|DICT|INTERRES
     7    4    5 1    
     8    4   75 1    
     9    5    6 1    
    10    5   35 1    
    11    5   76 1    
    12    6    7 1    
    13    6   77 1    
    14    6   78 1    
    15    7    8 1    
    16    8    9 1    
    17    8   79 1    
    18    8   80 1    
    19    9   10 ar   
    20    9   14 ar   
    21   10   11 ar   
    22   10   81 1    
    23   11   12 ar   
    24   11   71 1    
    25   12   13 ar   
    26   12   82 1    
    27   13   14 ar   
    28   13   15 1    
    29   14   83 1    
    30   15   16 1    
    31   15   84 1    
    32   15   85 1    
    33   16   17 1    
    34   17   18 1    
    35   17   86 1    
    36   17   87 1    
    37   18   19 1    
    38   18   37 1    
    39   18   88 1    
    40   19   20 am   BACKBONE|DICT|INTERRES
    41   19   89 1    
    42   20   21 2    
    43   20   22 1    
    44   22   23 1    
    45   22   24 1    
    46   22   90 1    
    47   23   91 1    
    48   23   92 1    
    49   23   93 1    
    50   24   25 am   BACKBONE|DICT|INTERRES
    51   24   94 1    
    52   25   26 2    
    53   25   27 1    
    54   27   28 1    
    55   27   29 1    
    56   27   95 1    
    57   28   96 1    
    58   28   97 1    
    59   28   98 1    
    60   29   30 am   BACKBONE|DICT|INTERRES
    61   29   99 1    
    62   30   31 2    
    63   30   32 1    
    64   32   33 1    
    65   32   34 1    
    66   32  100 1    
    67   33  101 1    
    68   33  102 1    
    69   33  103 1    
    70   34   35 am   BACKBONE|DICT|INTERRES
    71   34  104 1    
    72   35   36 2    
    73   37   38 2    
    74   37   39 am   BACKBONE|DICT|INTERRES
    75   39   40 1    
    76   39  105 1    
    77   40   41 1    
    78   40   42 1    
    79   40  106 1    
    80   41  107 1    
    81   41  108 1    
    82   41  109 1    
    83   42   43 2    
    84   42   44 am   BACKBONE|DICT|INTERRES
    85   44   45 1    
    86   44  110 1    
    87   45   46 1    
    88   45   47 1    
    89   45  111 1    
    90   46  112 1    
    91   46  113 1    
    92   46  114 1    
    93   47   48 2    
    94   47   49 am   BACKBONE|DICT|INTERRES
    95   49   50 1    
    96   49  115 1    
    97   50   51 1    
    98   50   52 1    
    99   50  116 1    
   100   51  117 1    
   101   51  118 1    
   102   51  119 1    
   103   52   53 2    
   104   52   54 am   BACKBONE|DICT|INTERRES
   105   54   55 1    
   106   54  120 1    
   107   55   56 1    
   108   55   57 1    
   109   55  121 1    
   110   56  122 1    
   111   56  123 1    
   112   56  124 1    
   113   57   58 2    
   114   57   59 am   BACKBONE|DICT|INTERRES
   115   59   60 1    
   116   59  125 1    
   117   60   61 1    
   118   60   62 1    
   119   60  126 1    
   120   61  127 1    
   121   61  128 1    
   122   61  129 1    
   123   62   63 2    
   124   62   64 am   BACKBONE|DICT|INTERRES
   125   64   65 1    
   126   64  130 1    
   127   65   66 1    
   128   65   69 1    
   129   65  131 1    
   130   66   67 am   BACKBONE|DICT|INTERRES
   131   66   68 2    
   132   67  132 1    
   133   67  133 1    
   134   69   70 1    
   135   69  134 1    
   136   69  135 1    
   137   70   71 1    
   138   71  136 1    
   139   71  137 1    
@<TRIPOS>SUBSTRUCTURE
     1 UNK         1 GROUP             0       ****    0 ROOT    
