@<TRIPOS>MOLECULE
3R137
137   139    1
SMALL
USER_CHARGES


@<TRIPOS>ATOM
      1 CA         26.2718   -5.6918   -2.5618 C.3       0 UNK        -0.2020 
      2 C          26.1632   -4.2557   -2.0755 C.2       0 UNK         0.4855 
      3 O          25.7545   -3.3854   -2.8418 O.2       0 UNK        -0.5197 
      4 N          26.5082   -4.0044   -0.8042 N.am      1 UNK        -0.4892 
      5 CA         26.5278   -2.6838   -0.1476 C.3       1 UNK         0.0835 
      6 C6         27.6569   -1.7613   -0.6828 C.3       12 UNK        -0.0855 
      7 S7         29.3044   -2.4408   -0.2984 S.3       12 UNK        -0.2931 
      8 C8         30.3713   -1.3691   -1.3195 C.3       12 UNK         0.0378 
      9 C9         30.6801   -1.8830   -2.7279 C.ar      12 UNK        -0.0802 
     10 C10        31.7536   -1.3043   -3.4105 C.ar      12 UNK        -0.0944 
     11 C11        32.1209   -1.7459   -4.6836 C.ar      12 UNK        -0.0787 
     12 C12        31.4032   -2.7839   -5.2839 C.ar      12 UNK        -0.0862 
     13 C13        30.3230   -3.3743   -4.6202 C.ar      12 UNK        -0.0733 
     14 C14        29.9584   -2.9121   -3.3502 C.ar      12 UNK        -0.0832 
     15 C15        29.5930   -4.5559   -5.2474 C.3       12 UNK         0.0240 
     16 S16        28.6089   -4.0994   -6.7098 S.3       12 UNK        -0.2522 
     17 C17        27.2635   -3.1133   -5.9736 C.3       12 UNK        -0.0967 
     18 CA         27.0529   -1.7617   -6.7011 C.3       5 UNK         0.0660 
     19 N          25.6976   -1.2440   -6.4687 N.am      5 UNK        -0.4015 
     20 C          25.1900   -0.0596   -6.8470 C.2       4 UNK         0.4946 
     21 O          25.8408    0.8080   -7.4297 O.2       4 UNK        -0.5353 
     22 CA         23.7051    0.2216   -6.5381 C.3       4 UNK         0.0277 
     23 CB         22.9238    0.4551   -7.8426 C.3       4 UNK        -0.1981 
     24 N          23.0322   -0.8267   -5.7610 N.am      4 UNK        -0.4209 
     25 C          23.2709   -1.1024   -4.4720 C.2       3 UNK         0.4942 
     26 O          24.0828   -0.4773   -3.7863 O.2       3 UNK        -0.5208 
     27 CA         22.5012   -2.2981   -3.8875 C.3       3 UNK         0.0250 
     28 CB         22.8160   -3.5975   -4.6548 C.3       3 UNK        -0.1990 
     29 N          22.8578   -2.4959   -2.4842 N.am      3 UNK        -0.4232 
     30 C          22.1331   -2.0781   -1.4382 C.2       2 UNK         0.4993 
     31 O          21.0470   -1.5061   -1.5466 O.2       2 UNK        -0.5286 
     32 CA         22.6823   -2.3620   -0.0267 C.3       2 UNK         0.0209 
     33 CB         21.8235   -3.4246    0.6807 C.3       2 UNK        -0.1931 
     34 N          24.0786   -2.8073   -0.0203 N.am      2 UNK        -0.4546 
     35 C          25.1409   -1.9964   -0.1242 C.2       1 UNK         0.5154 
     36 O          25.0488   -0.7692   -0.1853 O.2       1 UNK        -0.5181 
     37 C          28.1739   -0.7566   -6.3667 C.2       5 UNK         0.5014 
     38 O          29.1010   -0.6061   -7.1615 O.2       5 UNK        -0.5248 
     39 N          28.0191   -0.0335   -5.2475 N.am      6 UNK        -0.4434 
     40 CA         28.9334    1.0116   -4.7756 C.3       6 UNK         0.0363 
     41 CB         28.4270    1.5337   -3.4215 C.3       6 UNK        -0.1936 
     42 C          29.1451    2.1842   -5.7566 C.2       6 UNK         0.5081 
     43 O          30.1492    2.8863   -5.6361 O.2       6 UNK        -0.5248 
     44 N          28.2112    2.3822   -6.6962 N.am      7 UNK        -0.4718 
     45 CA         28.3371    3.3138   -7.8145 C.3       7 UNK         0.0273 
     46 CB         27.0829    4.2009   -7.8842 C.3       7 UNK        -0.1935 
     47 C          28.5331    2.5471   -9.1302 C.2       7 UNK         0.5018 
     48 O          29.4341    2.8858   -9.8978 O.2       7 UNK        -0.5186 
     49 N          27.6931    1.5294   -9.3715 N.am      8 UNK        -0.4240 
     50 CA         27.6094    0.7738  -10.6249 C.3       8 UNK         0.0235 
     51 CB         26.4003   -0.1739  -10.5718 C.3       8 UNK        -0.2000 
     52 C          28.8847    0.0035  -11.0046 C.2       8 UNK         0.4941 
     53 O          29.1555   -0.1399  -12.1975 O.2       8 UNK        -0.5273 
     54 N          29.6565   -0.4586  -10.0105 N.am      9 UNK        -0.4262 
     55 CA         30.9419   -1.1302  -10.2240 C.3       9 UNK         0.0264 
     56 CB         31.2463   -2.0378   -9.0203 C.3       9 UNK        -0.1955 
     57 C          32.1085   -0.1540  -10.4645 C.2       9 UNK         0.5031 
     58 O          33.2227   -0.6222  -10.7064 O.2       9 UNK        -0.5390 
     59 N          31.8711    1.1638  -10.3485 N.am      10 UNK        -0.4204 
     60 CA         32.8206    2.2872  -10.4200 C.3       10 UNK         0.0237 
     61 CB         33.5379    2.3489  -11.7829 C.3       10 UNK        -0.1985 
     62 C          33.8250    2.3414   -9.2529 C.2       10 UNK         0.4970 
     63 O          34.0783    3.4287   -8.7335 O.2       10 UNK        -0.4914 
     64 N          34.3522    1.1781   -8.8546 N.am      11 UNK        -0.4285 
     65 CA         35.2105    0.9385   -7.6836 C.3       11 UNK         0.1007 
     66 C          36.6384    1.5573   -7.7781 C.2       11 UNK         0.5703 
     67 N          37.1037    1.9716   -8.9508 N.am      11 UNK        -0.7361 
     68 O          37.3543    1.6327   -6.7818 O.2       11 UNK        -0.4986 
     69 C69        34.5017    1.2598   -6.3349 C.3       12 UNK        -0.0947 
     70 S70        32.8653    0.4663   -6.1548 S.3       12 UNK        -0.2240 
     71 C71        33.3159   -1.1148   -5.3809 C.3       12 UNK         0.0194 
     72 H72        26.8023   -5.7268   -3.5126 H         1 UNK         0.0906 
     73 H73        25.2774   -6.1106   -2.7138 H         1 UNK         0.0906 
     74 H74        26.8058   -6.3237   -1.8524 H         1 UNK         0.0906 
     75 H75        26.8302   -4.7688   -0.2258 H         1 UNK         0.3140 
     76 H76        26.7446   -2.8775    0.9046 H         1 UNK         0.1085 
     77 H77        27.5576   -1.6098   -1.7592 H         1 UNK         0.0836 
     78 H78        27.6066   -0.7709   -0.2264 H         1 UNK         0.0836 
     79 H79        29.9384   -0.3708   -1.3835 H         1 UNK         0.0731 
     80 H80        31.3132   -1.2534   -0.7809 H         1 UNK         0.0731 
     81 H81        32.3176   -0.5072   -2.9448 H         1 UNK         0.1312 
     82 H82        31.6894   -3.1425   -6.2628 H         1 UNK         0.1406 
     83 H83        29.1266   -3.3780   -2.8419 H         1 UNK         0.1631 
     84 H84        30.3287   -5.3038   -5.5464 H         1 UNK         0.0717 
     85 H85        28.9458   -5.0462   -4.5192 H         1 UNK         0.0717 
     86 H86        26.3615   -3.7238   -6.0393 H         1 UNK         0.0934 
     87 H87        27.4362   -2.9612   -4.9067 H         1 UNK         0.0934 
     88 H88        27.1093   -1.9476   -7.7747 H         1 UNK         0.0739 
     89 H89        25.0752   -1.8635   -5.9734 H         1 UNK         0.3093 
     90 H90        23.6759    1.1444   -5.9547 H         1 UNK         0.0818 
     91 H91        21.8884    0.7316   -7.6425 H         1 UNK         0.0819 
     92 H92        23.3640    1.2665   -8.4243 H         1 UNK         0.0819 
     93 H93        22.9200   -0.4328   -8.4761 H         1 UNK         0.0819 
     94 H94        22.3488   -1.3816   -6.2568 H         1 UNK         0.3041 
     95 H95        21.4332   -2.0899   -3.9804 H         1 UNK         0.0784 
     96 H96        22.4689   -3.5494   -5.6873 H         1 UNK         0.0793 
     97 H97        23.8855   -3.8087   -4.6788 H         1 UNK         0.0793 
     98 H98        22.3215   -4.4540   -4.1959 H         1 UNK         0.0793 
     99 H99        23.7937   -2.8511   -2.3208 H         1 UNK         0.3024 
    100 H100       22.6073   -1.4298    0.5384 H         1 UNK         0.1171 
    101 H101       22.1601   -3.5904    1.7044 H         1 UNK         0.0786 
    102 H102       20.7793   -3.1129    0.7329 H         1 UNK         0.0786 
    103 H103       21.8518   -4.3811    0.1573 H         1 UNK         0.0786 
    104 H104       24.2422   -3.8033    0.0222 H         1 UNK         0.2977 
    105 H105       27.1995   -0.2041   -4.6824 H         1 UNK         0.3127 
    106 H106       29.9073    0.5418   -4.6260 H         1 UNK         0.0770 
    107 H107       27.4659    2.0399   -3.5207 H         1 UNK         0.0814 
    108 H108       29.1302    2.2488   -2.9924 H         1 UNK         0.0814 
    109 H109       28.3054    0.7259   -2.7009 H         1 UNK         0.0814 
    110 H110       27.4192    1.7476   -6.7306 H         1 UNK         0.2983 
    111 H111       29.2046    3.9640   -7.6803 H         1 UNK         0.0947 
    112 H112       27.1410    4.8938   -8.7247 H         1 UNK         0.0806 
    113 H113       26.9732    4.7981   -6.9790 H         1 UNK         0.0806 
    114 H114       26.1726    3.6122   -8.0069 H         1 UNK         0.0806 
    115 H115       26.9907    1.3041   -8.6677 H         1 UNK         0.3000 
    116 H116       27.4299    1.5007  -11.4199 H         1 UNK         0.0850 
    117 H117       25.4748    0.3720  -10.3870 H         1 UNK         0.0810 
    118 H118       26.5090   -0.9222   -9.7876 H         1 UNK         0.0810 
    119 H119       26.2793   -0.7065  -11.5161 H         1 UNK         0.0810 
    120 H120       29.3696   -0.3296   -9.0414 H         1 UNK         0.3040 
    121 H121       30.8650   -1.7659  -11.1086 H         1 UNK         0.0766 
    122 H122       30.4281   -2.7314   -8.8269 H         1 UNK         0.0812 
    123 H123       31.4135   -1.4559   -8.1135 H         1 UNK         0.0812 
    124 H124       32.1431   -2.6338   -9.1929 H         1 UNK         0.0812 
    125 H125       30.9199    1.4468  -10.1344 H         1 UNK         0.3205 
    126 H126       32.2061    3.1852  -10.3375 H         1 UNK         0.0754 
    127 H127       34.2005    1.4973  -11.9390 H         1 UNK         0.0769 
    128 H128       34.1478    3.2501  -11.8588 H         1 UNK         0.0769 
    129 H129       32.8224    2.3719  -12.6049 H         1 UNK         0.0769 
    130 H130       34.1005    0.3554   -9.3968 H         1 UNK         0.2981 
    131 H131       35.3892   -0.1370   -7.6917 H         1 UNK         0.0541 
    132 H132       38.0322    2.3594   -9.0057 H         1 UNK         0.3459 
    133 H133       36.5313    1.9065   -9.7770 H         1 UNK         0.3459 
    134 H134       34.3587    2.3366   -6.2336 H         1 UNK         0.0612 
    135 H135       35.1270    0.9654   -5.4907 H         1 UNK         0.0612 
    136 H136       34.1123   -0.9592   -4.6519 H         1 UNK         0.0624 
    137 H137       33.7186   -1.7836   -6.1430 H         1 UNK         0.0624 
@<TRIPOS>BOND
     1    1    2 1    
     2    1   72 1    
     3    1   73 1    
     4    1   74 1    
     5    2    3 2    
     6    2    4 am   BACKBONE|DICT|INTERRES
     7    4    5 1    
     8    4   75 1    
     9    5    6 1    
    10    5   35 1    
    11    5   76 1    
    12    6    7 1    
    13    6   77 1    
    14    6   78 1    
    15    7    8 1    
    16    8    9 1    
    17    8   79 1    
    18    8   80 1    
    19    9   10 ar   
    20    9   14 ar   
    21   10   11 ar   
    22   10   81 1    
    23   11   12 ar   
    24   11   71 1    
    25   12   13 ar   
    26   12   82 1    
    27   13   14 ar   
    28   13   15 1    
    29   14   83 1    
    30   15   16 1    
    31   15   84 1    
    32   15   85 1    
    33   16   17 1    
    34   17   18 1    
    35   17   86 1    
    36   17   87 1    
    37   18   19 1    
    38   18   37 1    
    39   18   88 1    
    40   19   20 am   BACKBONE|DICT|INTERRES
    41   19   89 1    
    42   20   21 2    
    43   20   22 1    
    44   22   23 1    
    45   22   24 1    
    46   22   90 1    
    47   23   91 1    
    48   23   92 1    
    49   23   93 1    
    50   24   25 am   BACKBONE|DICT|INTERRES
    51   24   94 1    
    52   25   26 2    
    53   25   27 1    
    54   27   28 1    
    55   27   29 1    
    56   27   95 1    
    57   28   96 1    
    58   28   97 1    
    59   28   98 1    
    60   29   30 am   BACKBONE|DICT|INTERRES
    61   29   99 1    
    62   30   31 2    
    63   30   32 1    
    64   32   33 1    
    65   32   34 1    
    66   32  100 1    
    67   33  101 1    
    68   33  102 1    
    69   33  103 1    
    70   34   35 am   BACKBONE|DICT|INTERRES
    71   34  104 1    
    72   35   36 2    
    73   37   38 2    
    74   37   39 am   BACKBONE|DICT|INTERRES
    75   39   40 1    
    76   39  105 1    
    77   40   41 1    
    78   40   42 1    
    79   40  106 1    
    80   41  107 1    
    81   41  108 1    
    82   41  109 1    
    83   42   43 2    
    84   42   44 am   BACKBONE|DICT|INTERRES
    85   44   45 1    
    86   44  110 1    
    87   45   46 1    
    88   45   47 1    
    89   45  111 1    
    90   46  112 1    
    91   46  113 1    
    92   46  114 1    
    93   47   48 2    
    94   47   49 am   BACKBONE|DICT|INTERRES
    95   49   50 1    
    96   49  115 1    
    97   50   51 1    
    98   50   52 1    
    99   50  116 1    
   100   51  117 1    
   101   51  118 1    
   102   51  119 1    
   103   52   53 2    
   104   52   54 am   BACKBONE|DICT|INTERRES
   105   54   55 1    
   106   54  120 1    
   107   55   56 1    
   108   55   57 1    
   109   55  121 1    
   110   56  122 1    
   111   56  123 1    
   112   56  124 1    
   113   57   58 2    
   114   57   59 am   BACKBONE|DICT|INTERRES
   115   59   60 1    
   116   59  125 1    
   117   60   61 1    
   118   60   62 1    
   119   60  126 1    
   120   61  127 1    
   121   61  128 1    
   122   61  129 1    
   123   62   63 2    
   124   62   64 am   BACKBONE|DICT|INTERRES
   125   64   65 1    
   126   64  130 1    
   127   65   66 1    
   128   65   69 1    
   129   65  131 1    
   130   66   67 am   BACKBONE|DICT|INTERRES
   131   66   68 2    
   132   67  132 1    
   133   67  133 1    
   134   69   70 1    
   135   69  134 1    
   136   69  135 1    
   137   70   71 1    
   138   71  136 1    
   139   71  137 1    
@<TRIPOS>SUBSTRUCTURE
     1 UNK         1 GROUP             0       ****    0 ROOT    
