@<TRIPOS>MOLECULE
3R137
137   139    1
SMALL
USER_CHARGES


@<TRIPOS>ATOM
      1 CA         23.5911   -5.7124   -3.3958 C.3       0 UNK        -0.2020 
      2 C          24.8984   -4.9350   -3.3919 C.2       0 UNK         0.4855 
      3 O          25.2143   -4.2706   -4.3781 O.2       0 UNK        -0.5197 
      4 N          25.6505   -5.0040   -2.2839 N.am      1 UNK        -0.4892 
      5 CA         26.9549   -4.3589   -2.0733 C.3       1 UNK         0.0835 
      6 C6         28.0802   -5.0084   -2.9331 C.3       12 UNK        -0.0855 
      7 S7         29.6335   -5.2199   -1.9955 S.3       12 UNK        -0.2931 
      8 C8         30.8914   -5.1129   -3.3116 C.3       12 UNK         0.0378 
      9 C9         31.6120   -3.7713   -3.3096 C.ar      12 UNK        -0.0802 
     10 C10        32.9981   -3.7101   -3.1271 C.ar      12 UNK        -0.0944 
     11 C11        33.6649   -2.4803   -3.1493 C.ar      12 UNK        -0.0787 
     12 C12        32.9329   -1.3038   -3.3344 C.ar      12 UNK        -0.0862 
     13 C13        31.5530   -1.3549   -3.5403 C.ar      12 UNK        -0.0733 
     14 C14        30.8997   -2.5894   -3.5248 C.ar      12 UNK        -0.0832 
     15 C15        30.7728   -0.0933   -3.8623 C.3       12 UNK         0.0240 
     16 S16        29.5506    0.3102   -2.5773 S.3       12 UNK        -0.2522 
     17 C17        28.5644    1.6458   -3.3430 C.3       12 UNK        -0.0967 
     18 CA         28.2413    1.4839   -4.8535 C.3       5 UNK         0.0660 
     19 N          27.6216    0.1957   -5.1912 N.am      5 UNK        -0.4015 
     20 C          27.4806   -0.2649   -6.4440 C.2       4 UNK         0.4946 
     21 O          27.9454    0.2979   -7.4353 O.2       4 UNK        -0.5353 
     22 CA         26.6528   -1.5451   -6.6463 C.3       4 UNK         0.0277 
     23 CB         27.5442   -2.7923   -6.5622 C.3       4 UNK        -0.1981 
     24 N          25.5373   -1.6545   -5.7036 N.am      4 UNK        -0.4209 
     25 C          24.4906   -0.8150   -5.6843 C.2       3 UNK         0.4942 
     26 O          24.3272    0.0900   -6.5013 O.2       3 UNK        -0.5208 
     27 CA         23.4928   -0.9600   -4.5247 C.3       3 UNK         0.0250 
     28 CB         22.4636   -2.0641   -4.8124 C.3       3 UNK        -0.1990 
     29 N          24.1650   -1.2066   -3.2467 N.am      3 UNK        -0.4232 
     30 C          24.9696   -0.3215   -2.6390 C.2       2 UNK         0.4993 
     31 O          25.1779    0.8142   -3.0658 O.2       2 UNK        -0.5286 
     32 CA         25.6967   -0.7871   -1.3659 C.3       2 UNK         0.0209 
     33 CB         24.8784   -0.4263   -0.1163 C.3       2 UNK        -0.1931 
     34 N          26.0016   -2.2221   -1.3561 N.am      2 UNK        -0.4546 
     35 C          26.8417   -2.8226   -2.2125 C.2       1 UNK         0.5154 
     36 O          27.4263   -2.2194   -3.1136 O.2       1 UNK        -0.5181 
     37 C          27.3888    2.6635   -5.3567 C.2       5 UNK         0.5014 
     38 O          27.9325    3.5686   -5.9899 O.2       5 UNK        -0.5248 
     39 N          26.0723    2.6212   -5.1008 N.am      6 UNK        -0.4434 
     40 CA         25.1007    3.6231   -5.5530 C.3       6 UNK         0.0363 
     41 CB         23.7257    3.3234   -4.9355 C.3       6 UNK        -0.1936 
     42 C          24.9996    3.7233   -7.0858 C.2       6 UNK         0.5081 
     43 O          24.9050    4.8302   -7.6163 O.2       6 UNK        -0.5248 
     44 N          25.0524    2.5726   -7.7695 N.am      7 UNK        -0.4718 
     45 CA         25.0800    2.4669   -9.2311 C.3       7 UNK         0.0273 
     46 CB         24.6922    1.0326   -9.6285 C.3       7 UNK        -0.1935 
     47 C          26.4388    2.8353   -9.8577 C.2       7 UNK         0.5018 
     48 O          26.4975    3.0125  -11.0752 O.2       7 UNK        -0.5186 
     49 N          27.4989    2.9070   -9.0367 N.am      8 UNK        -0.4240 
     50 CA         28.9107    3.0726   -9.4081 C.3       8 UNK         0.0235 
     51 CB         29.1649    4.4633  -10.0271 C.3       8 UNK        -0.2000 
     52 C          29.4355    1.9128  -10.2809 C.2       8 UNK         0.4941 
     53 O          30.2643    2.1272  -11.1673 O.2       8 UNK        -0.5273 
     54 N          28.9392    0.7002  -10.0058 N.am      9 UNK        -0.4262 
     55 CA         29.3155   -0.5481  -10.6707 C.3       9 UNK         0.0264 
     56 CB         28.0837   -1.4676  -10.7160 C.3       9 UNK        -0.1955 
     57 C          30.4847   -1.2536   -9.9615 C.2       9 UNK         0.5031 
     58 O          31.1011   -2.1400  -10.5547 O.2       9 UNK        -0.5390 
     59 N          30.7637   -0.8589   -8.7153 N.am      10 UNK        -0.4204 
     60 CA         31.8448   -1.3450   -7.8656 C.3       10 UNK         0.0237 
     61 CB         31.2694   -2.4292   -6.9366 C.3       10 UNK        -0.1985 
     62 C          32.4017   -0.1369   -7.0841 C.2       10 UNK         0.4970 
     63 O          31.6879    0.8614   -6.9643 O.2       10 UNK        -0.4914 
     64 N          33.6200   -0.1790   -6.5247 N.am      11 UNK        -0.4285 
     65 CA         34.6272   -1.2521   -6.5786 C.3       11 UNK         0.1007 
     66 C          35.3042   -1.4059   -7.9705 C.2       11 UNK         0.5703 
     67 N          36.0114   -2.5043   -8.1935 N.am      11 UNK        -0.7361 
     68 O          35.2020   -0.5439   -8.8412 O.2       11 UNK        -0.4986 
     69 C69        35.6775   -1.0794   -5.4395 C.3       12 UNK        -0.0947 
     70 S70        36.0408   -2.6481   -4.5781 S.3       12 UNK        -0.2240 
     71 C71        35.1773   -2.4243   -2.9872 C.3       12 UNK         0.0194 
     72 H72        23.5378   -6.3486   -4.2788 H         1 UNK         0.0906 
     73 H73        23.4910   -6.3477   -2.5160 H         1 UNK         0.0906 
     74 H74        22.7447   -5.0270   -3.4185 H         1 UNK         0.0906 
     75 H75        25.3189   -5.5595   -1.5065 H         1 UNK         0.3140 
     76 H76        27.1886   -4.5412   -1.0227 H         1 UNK         0.1085 
     77 H77        28.2535   -4.4675   -3.8636 H         1 UNK         0.0836 
     78 H78        27.7811   -6.0101   -3.2459 H         1 UNK         0.0836 
     79 H79        30.4405   -5.2833   -4.2902 H         1 UNK         0.0731 
     80 H80        31.6043   -5.9256   -3.1640 H         1 UNK         0.0731 
     81 H81        33.5641   -4.6202   -2.9814 H         1 UNK         0.1312 
     82 H82        33.4415   -0.3503   -3.3527 H         1 UNK         0.1406 
     83 H83        29.8330   -2.6275   -3.6907 H         1 UNK         0.1631 
     84 H84        30.2758   -0.2687   -4.8133 H         1 UNK         0.0717 
     85 H85        31.4377    0.7593   -4.0081 H         1 UNK         0.0717 
     86 H86        27.6451    1.7381   -2.7629 H         1 UNK         0.0934 
     87 H87        29.1067    2.5796   -3.1820 H         1 UNK         0.0934 
     88 H88        29.1795    1.5507   -5.4075 H         1 UNK         0.0739 
     89 H89        27.2676   -0.3608   -4.4222 H         1 UNK         0.3093 
     90 H90        26.2260   -1.5052   -7.6503 H         1 UNK         0.0818 
     91 H91        28.0699   -2.8494   -5.6098 H         1 UNK         0.0819 
     92 H92        26.9623   -3.7068   -6.6787 H         1 UNK         0.0819 
     93 H93        28.2959   -2.7836   -7.3520 H         1 UNK         0.0819 
     94 H94        25.5796   -2.4112   -5.0256 H         1 UNK         0.3041 
     95 H95        22.9527   -0.0151   -4.4343 H         1 UNK         0.0784 
     96 H96        21.8977   -1.8358   -5.7165 H         1 UNK         0.0793 
     97 H97        22.9362   -3.0335   -4.9666 H         1 UNK         0.0793 
     98 H98        21.7455   -2.1628   -3.9982 H         1 UNK         0.0793 
     99 H99        24.0718   -2.1274   -2.8450 H         1 UNK         0.3024 
    100 H100       26.6454   -0.2468   -1.3231 H         1 UNK         0.1171 
    101 H101       25.4232   -0.6644    0.7975 H         1 UNK         0.0786 
    102 H102       24.6584    0.6421   -0.0903 H         1 UNK         0.0786 
    103 H103       23.9254   -0.9561   -0.0887 H         1 UNK         0.0786 
    104 H104       25.5305   -2.7851   -0.6623 H         1 UNK         0.2977 
    105 H105       25.7106    1.8646   -4.5223 H         1 UNK         0.3127 
    106 H106       25.4354    4.5939   -5.1817 H         1 UNK         0.0770 
    107 H107       23.3390    2.3576   -5.2617 H         1 UNK         0.0814 
    108 H108       22.9956    4.0812   -5.2225 H         1 UNK         0.0814 
    109 H109       23.7732    3.3134   -3.8464 H         1 UNK         0.0814 
    110 H110       25.0375    1.6973   -7.2500 H         1 UNK         0.2983 
    111 H111       24.3352    3.1521   -9.6418 H         1 UNK         0.0947 
    112 H112       24.6592    0.9195  -10.7130 H         1 UNK         0.0806 
    113 H113       23.7069    0.7669   -9.2450 H         1 UNK         0.0806 
    114 H114       25.4076    0.3036   -9.2458 H         1 UNK         0.0806 
    115 H115       27.3325    2.7473   -8.0505 H         1 UNK         0.3000 
    116 H116       29.4724    3.0206   -8.4737 H         1 UNK         0.0850 
    117 H117       30.2320    4.6378  -10.1692 H         1 UNK         0.0810 
    118 H118       28.7907    5.2576   -9.3813 H         1 UNK         0.0810 
    119 H119       28.6868    4.5680  -11.0013 H         1 UNK         0.0810 
    120 H120       28.3296    0.6124   -9.1934 H         1 UNK         0.3040 
    121 H121       29.6259   -0.3363  -11.6961 H         1 UNK         0.0766 
    122 H122       27.2568   -0.9959  -11.2474 H         1 UNK         0.0812 
    123 H123       27.7355   -1.7250   -9.7153 H         1 UNK         0.0812 
    124 H124       28.3113   -2.4009  -11.2330 H         1 UNK         0.0812 
    125 H125       30.2433   -0.0835   -8.3211 H         1 UNK         0.3205 
    126 H126       32.6286   -1.7713   -8.4908 H         1 UNK         0.0754 
    127 H127       32.0097   -2.8128   -6.2369 H         1 UNK         0.0769 
    128 H128       30.9018   -3.2808   -7.5092 H         1 UNK         0.0769 
    129 H129       30.4374   -2.0455   -6.3479 H         1 UNK         0.0769 
    130 H130       33.9350    0.6593   -6.0622 H         1 UNK         0.2981 
    131 H131       34.0901   -2.1825   -6.4038 H         1 UNK         0.0541 
    132 H132       36.1205   -3.2037   -7.4750 H         1 UNK         0.3459 
    133 H133       36.4635   -2.6260   -9.0862 H         1 UNK         0.3459 
    134 H134       35.3424   -0.3546   -4.6975 H         1 UNK         0.0612 
    135 H135       36.6174   -0.6693   -5.8144 H         1 UNK         0.0612 
    136 H136       35.4820   -1.4802   -2.5328 H         1 UNK         0.0624 
    137 H137       35.5010   -3.2084   -2.3012 H         1 UNK         0.0624 
@<TRIPOS>BOND
     1    1    2 1    
     2    1   72 1    
     3    1   73 1    
     4    1   74 1    
     5    2    3 2    
     6    2    4 am   BACKBONE|DICT|INTERRES
     7    4    5 1    
     8    4   75 1    
     9    5    6 1    
    10    5   35 1    
    11    5   76 1    
    12    6    7 1    
    13    6   77 1    
    14    6   78 1    
    15    7    8 1    
    16    8    9 1    
    17    8   79 1    
    18    8   80 1    
    19    9   10 ar   
    20    9   14 ar   
    21   10   11 ar   
    22   10   81 1    
    23   11   12 ar   
    24   11   71 1    
    25   12   13 ar   
    26   12   82 1    
    27   13   14 ar   
    28   13   15 1    
    29   14   83 1    
    30   15   16 1    
    31   15   84 1    
    32   15   85 1    
    33   16   17 1    
    34   17   18 1    
    35   17   86 1    
    36   17   87 1    
    37   18   19 1    
    38   18   37 1    
    39   18   88 1    
    40   19   20 am   BACKBONE|DICT|INTERRES
    41   19   89 1    
    42   20   21 2    
    43   20   22 1    
    44   22   23 1    
    45   22   24 1    
    46   22   90 1    
    47   23   91 1    
    48   23   92 1    
    49   23   93 1    
    50   24   25 am   BACKBONE|DICT|INTERRES
    51   24   94 1    
    52   25   26 2    
    53   25   27 1    
    54   27   28 1    
    55   27   29 1    
    56   27   95 1    
    57   28   96 1    
    58   28   97 1    
    59   28   98 1    
    60   29   30 am   BACKBONE|DICT|INTERRES
    61   29   99 1    
    62   30   31 2    
    63   30   32 1    
    64   32   33 1    
    65   32   34 1    
    66   32  100 1    
    67   33  101 1    
    68   33  102 1    
    69   33  103 1    
    70   34   35 am   BACKBONE|DICT|INTERRES
    71   34  104 1    
    72   35   36 2    
    73   37   38 2    
    74   37   39 am   BACKBONE|DICT|INTERRES
    75   39   40 1    
    76   39  105 1    
    77   40   41 1    
    78   40   42 1    
    79   40  106 1    
    80   41  107 1    
    81   41  108 1    
    82   41  109 1    
    83   42   43 2    
    84   42   44 am   BACKBONE|DICT|INTERRES
    85   44   45 1    
    86   44  110 1    
    87   45   46 1    
    88   45   47 1    
    89   45  111 1    
    90   46  112 1    
    91   46  113 1    
    92   46  114 1    
    93   47   48 2    
    94   47   49 am   BACKBONE|DICT|INTERRES
    95   49   50 1    
    96   49  115 1    
    97   50   51 1    
    98   50   52 1    
    99   50  116 1    
   100   51  117 1    
   101   51  118 1    
   102   51  119 1    
   103   52   53 2    
   104   52   54 am   BACKBONE|DICT|INTERRES
   105   54   55 1    
   106   54  120 1    
   107   55   56 1    
   108   55   57 1    
   109   55  121 1    
   110   56  122 1    
   111   56  123 1    
   112   56  124 1    
   113   57   58 2    
   114   57   59 am   BACKBONE|DICT|INTERRES
   115   59   60 1    
   116   59  125 1    
   117   60   61 1    
   118   60   62 1    
   119   60  126 1    
   120   61  127 1    
   121   61  128 1    
   122   61  129 1    
   123   62   63 2    
   124   62   64 am   BACKBONE|DICT|INTERRES
   125   64   65 1    
   126   64  130 1    
   127   65   66 1    
   128   65   69 1    
   129   65  131 1    
   130   66   67 am   BACKBONE|DICT|INTERRES
   131   66   68 2    
   132   67  132 1    
   133   67  133 1    
   134   69   70 1    
   135   69  134 1    
   136   69  135 1    
   137   70   71 1    
   138   71  136 1    
   139   71  137 1    
@<TRIPOS>SUBSTRUCTURE
     1 UNK         1 GROUP             0       ****    0 ROOT    
