@<TRIPOS>MOLECULE
3R137
137   139    1
SMALL
USER_CHARGES


@<TRIPOS>ATOM
      1 CA         23.7044   -6.2147   -3.2475 C.3       0 UNK        -0.2020 
      2 C          24.6742   -5.0516   -3.1141 C.2       0 UNK         0.4855 
      3 O          24.7385   -4.2094   -4.0106 O.2       0 UNK        -0.5197 
      4 N          25.4139   -4.9898   -1.9952 N.am      1 UNK        -0.4892 
      5 CA         26.4344   -3.9780   -1.6728 C.3       1 UNK         0.0835 
      6 C6         27.7533   -4.1933   -2.4763 C.3       12 UNK        -0.0855 
      7 S7         29.0093   -5.0535   -1.4771 S.3       12 UNK        -0.2931 
      8 C8         30.4674   -4.9340   -2.5720 C.3       12 UNK         0.0378 
      9 C9         31.0949   -3.5444   -2.7297 C.ar      12 UNK        -0.0802 
     10 C10        32.0856   -3.3841   -3.7032 C.ar      12 UNK        -0.0944 
     11 C11        32.7200   -2.1532   -3.8913 C.ar      12 UNK        -0.0787 
     12 C12        32.3548   -1.0637   -3.0969 C.ar      12 UNK        -0.0862 
     13 C13        31.3722   -1.2029   -2.1127 C.ar      12 UNK        -0.0733 
     14 C14        30.7504   -2.4439   -1.9304 C.ar      12 UNK        -0.0832 
     15 C15        31.0150   -0.0224   -1.2169 C.3       12 UNK         0.0240 
     16 S16        30.2083    1.3387   -2.1233 S.3       12 UNK        -0.2522 
     17 C17        28.6367    0.5733   -2.6424 C.3       12 UNK        -0.0967 
     18 CA         28.3992    0.6903   -4.1694 C.3       5 UNK         0.0660 
     19 N          27.5637   -0.3991   -4.6782 N.am      5 UNK        -0.4015 
     20 C          27.4606   -0.7227   -5.9748 C.2       4 UNK         0.4946 
     21 O          28.0899   -0.1618   -6.8743 O.2       4 UNK        -0.5353 
     22 CA         26.4779   -1.8453   -6.3432 C.3       4 UNK         0.0277 
     23 CB         27.1585   -3.2163   -6.2274 C.3       4 UNK        -0.1981 
     24 N          25.2403   -1.8448   -5.5568 N.am      4 UNK        -0.4209 
     25 C          24.3284   -0.8615   -5.5748 C.2       3 UNK         0.4942 
     26 O          24.4834    0.2045   -6.1683 O.2       3 UNK        -0.5208 
     27 CA         23.0313   -1.1004   -4.7912 C.3       3 UNK         0.0250 
     28 CB         22.1835   -2.2098   -5.4366 C.3       3 UNK        -0.1990 
     29 N          23.3215   -1.4382   -3.4008 N.am      3 UNK        -0.4232 
     30 C          23.5509   -0.5314   -2.4410 C.2       2 UNK         0.4993 
     31 O          23.4467    0.6833   -2.6061 O.2       2 UNK        -0.5286 
     32 CA         23.9894   -1.0578   -1.0627 C.3       2 UNK         0.0209 
     33 CB         22.7764   -1.1901   -0.1275 C.3       2 UNK        -0.1931 
     34 N          24.7083   -2.3356   -1.1060 N.am      2 UNK        -0.4546 
     35 C          25.8657   -2.5425   -1.7511 C.2       1 UNK         0.5154 
     36 O          26.4298   -1.6725   -2.4156 O.2       1 UNK        -0.5181 
     37 C          27.8226    2.0682   -4.5564 C.2       5 UNK         0.5014 
     38 O          28.5830    2.9514   -4.9540 O.2       5 UNK        -0.5248 
     39 N          26.4913    2.2212   -4.4658 N.am      6 UNK        -0.4434 
     40 CA         25.7717    3.4455   -4.8314 C.3       6 UNK         0.0363 
     41 CB         24.3326    3.3841   -4.2978 C.3       6 UNK        -0.1936 
     42 C          25.7766    3.7039   -6.3462 C.2       6 UNK         0.5081 
     43 O          25.9516    4.8481   -6.7656 O.2       6 UNK        -0.5248 
     44 N          25.6110    2.6363   -7.1387 N.am      7 UNK        -0.4718 
     45 CA         25.7023    2.6599   -8.6008 C.3       7 UNK         0.0273 
     46 CB         25.1111    1.3546   -9.1585 C.3       7 UNK        -0.1935 
     47 C          27.1382    2.8516   -9.1216 C.2       7 UNK         0.5018 
     48 O          27.2997    3.2377  -10.2798 O.2       7 UNK        -0.5186 
     49 N          28.1358    2.5614   -8.2709 N.am      8 UNK        -0.4240 
     50 CA         29.5747    2.5249   -8.5475 C.3       8 UNK         0.0235 
     51 CB         30.1187    3.9332   -8.8678 C.3       8 UNK        -0.2000 
     52 C          29.8960    1.4839   -9.6328 C.2       8 UNK         0.4941 
     53 O          30.4261    1.8292  -10.6917 O.2       8 UNK        -0.5273 
     54 N          29.5193    0.2273   -9.3581 N.am      9 UNK        -0.4262 
     55 CA         29.6310   -0.9292  -10.2514 C.3       9 UNK         0.0264 
     56 CB         28.8165   -2.0896   -9.6527 C.3       9 UNK        -0.1955 
     57 C          31.0903   -1.3341  -10.5443 C.2       9 UNK         0.5031 
     58 O          31.5686   -2.3464  -10.0293 O.2       9 UNK        -0.5390 
     59 N          31.7743   -0.5165  -11.3547 N.am      10 UNK        -0.4204 
     60 CA         33.1474   -0.6280  -11.8680 C.3       10 UNK         0.0237 
     61 CB         33.3487   -1.9265  -12.6740 C.3       10 UNK        -0.1985 
     62 C          34.2520   -0.4557  -10.8105 C.2       10 UNK         0.4970 
     63 O          35.2575    0.1921  -11.1039 O.2       10 UNK        -0.4914 
     64 N          34.0593   -1.0201   -9.6142 N.am      11 UNK        -0.4285 
     65 CA         34.9959   -0.9488   -8.4836 C.3       11 UNK         0.1007 
     66 C          35.0439    0.4189   -7.7380 C.2       11 UNK         0.5703 
     67 N          34.1816    1.3800   -8.0491 N.am      11 UNK        -0.7361 
     68 O          35.8913    0.6143   -6.8698 O.2       11 UNK        -0.4986 
     69 C69        34.8115   -2.1544   -7.5268 C.3       12 UNK        -0.0947 
     70 S70        33.2229   -2.1663   -6.6233 S.3       12 UNK        -0.2240 
     71 C71        33.8353   -2.0216   -4.9166 C.3       12 UNK         0.0194 
     72 H72        23.7376   -6.8770   -2.3827 H         1 UNK         0.0906 
     73 H73        22.6858   -5.8424   -3.3524 H         1 UNK         0.0906 
     74 H74        23.9454   -6.8009   -4.1338 H         1 UNK         0.0906 
     75 H75        25.2989   -5.7131   -1.2979 H         1 UNK         0.3140 
     76 H76        26.6540   -4.1060   -0.6113 H         1 UNK         0.1085 
     77 H77        28.2004   -3.2628   -2.8259 H         1 UNK         0.0836 
     78 H78        27.5727   -4.7840   -3.3749 H         1 UNK         0.0836 
     79 H79        31.2322   -5.6084   -2.1846 H         1 UNK         0.0731 
     80 H80        30.1906   -5.3183   -3.5552 H         1 UNK         0.0731 
     81 H81        32.3761   -4.2269   -4.3164 H         1 UNK         0.1312 
     82 H82        32.8449   -0.1087   -3.2301 H         1 UNK         0.1406 
     83 H83        30.0046   -2.5453   -1.1553 H         1 UNK         0.1631 
     84 H84        31.9268    0.3587   -0.7547 H         1 UNK         0.0717 
     85 H85        30.3674   -0.3352   -0.3963 H         1 UNK         0.0717 
     86 H86        28.6740   -0.4776   -2.3578 H         1 UNK         0.0934 
     87 H87        27.8124    0.9994   -2.0669 H         1 UNK         0.0934 
     88 H88        29.3665    0.5914   -4.6685 H         1 UNK         0.0739 
     89 H89        27.0294   -0.9206   -3.9849 H         1 UNK         0.3093 
     90 H90        26.1962   -1.6963   -7.3875 H         1 UNK         0.0818 
     91 H91        27.4544   -3.4244   -5.2016 H         1 UNK         0.0819 
     92 H92        26.4978   -4.0188   -6.5557 H         1 UNK         0.0819 
     93 H93        28.0593   -3.2647   -6.8387 H         1 UNK         0.0819 
     94 H94        25.0449   -2.6852   -5.0145 H         1 UNK         0.3041 
     95 H95        22.4473   -0.1777   -4.8234 H         1 UNK         0.0784 
     96 H96        21.9568   -1.9697   -6.4763 H         1 UNK         0.0793 
     97 H97        22.6906   -3.1750   -5.4289 H         1 UNK         0.0793 
     98 H98        21.2321   -2.3299   -4.9182 H         1 UNK         0.0793 
     99 H99        23.4902   -2.4136   -3.1943 H         1 UNK         0.3024 
    100 H100       24.6694   -0.3135   -0.6418 H         1 UNK         0.1171 
    101 H101       22.2341   -0.2460   -0.0560 H         1 UNK         0.0786 
    102 H102       23.0809   -1.4627    0.8831 H         1 UNK         0.0786 
    103 H103       22.0725   -1.9438   -0.4829 H         1 UNK         0.0786 
    104 H104       24.2915   -3.1104   -0.6097 H         1 UNK         0.2977 
    105 H105       25.9274    1.4377   -4.1674 H         1 UNK         0.3127 
    106 H106       26.2749    4.2874   -4.3507 H         1 UNK         0.0770 
    107 H107       23.7800    2.5432   -4.7189 H         1 UNK         0.0814 
    108 H108       23.7841    4.2931   -4.5480 H         1 UNK         0.0814 
    109 H109       24.3160    3.2850   -3.2124 H         1 UNK         0.0814 
    110 H110       25.3853    1.7386   -6.7128 H         1 UNK         0.2983 
    111 H111       25.1044    3.4966   -8.9688 H         1 UNK         0.0947 
    112 H112       25.1292    1.3497  -10.2492 H         1 UNK         0.0806 
    113 H113       24.0734    1.2251   -8.8505 H         1 UNK         0.0806 
    114 H114       25.6723    0.4831   -8.8180 H         1 UNK         0.0806 
    115 H115       27.8675    2.2194   -7.3574 H         1 UNK         0.3000 
    116 H116       30.0578    2.1837   -7.6301 H         1 UNK         0.0850 
    117 H117       29.8924    4.6350   -8.0650 H         1 UNK         0.0810 
    118 H118       29.7002    4.3337   -9.7915 H         1 UNK         0.0810 
    119 H119       31.2027    3.9122   -8.9861 H         1 UNK         0.0810 
    120 H120       29.0718    0.0542   -8.4587 H         1 UNK         0.3040 
    121 H121       29.1704   -0.6607  -11.2045 H         1 UNK         0.0766 
    122 H122       27.7705   -1.8145   -9.5167 H         1 UNK         0.0812 
    123 H123       29.2136   -2.3928   -8.6837 H         1 UNK         0.0812 
    124 H124       28.8415   -2.9638  -10.3045 H         1 UNK         0.0812 
    125 H125       31.3076    0.3626  -11.5699 H         1 UNK         0.3205 
    126 H126       33.2594    0.2047  -12.5643 H         1 UNK         0.0754 
    127 H127       34.3360   -1.9467  -13.1376 H         1 UNK         0.0769 
    128 H128       32.6136   -2.0143  -13.4741 H         1 UNK         0.0769 
    129 H129       33.2692   -2.8146  -12.0463 H         1 UNK         0.0769 
    130 H130       33.2058   -1.5533   -9.4689 H         1 UNK         0.2981 
    131 H131       35.9948   -1.0598   -8.9099 H         1 UNK         0.0541 
    132 H132       33.4928    1.2318   -8.7675 H         1 UNK         0.3459 
    133 H133       34.2304    2.2616   -7.5641 H         1 UNK         0.3459 
    134 H134       35.6413   -2.1945   -6.8190 H         1 UNK         0.0612 
    135 H135       34.8754   -3.0840   -8.0944 H         1 UNK         0.0612 
    136 H136       34.3544   -1.0680   -4.8060 H         1 UNK         0.0624 
    137 H137       34.5753   -2.8017   -4.7315 H         1 UNK         0.0624 
@<TRIPOS>BOND
     1    1    2 1    
     2    1   72 1    
     3    1   73 1    
     4    1   74 1    
     5    2    3 2    
     6    2    4 am   BACKBONE|DICT|INTERRES
     7    4    5 1    
     8    4   75 1    
     9    5    6 1    
    10    5   35 1    
    11    5   76 1    
    12    6    7 1    
    13    6   77 1    
    14    6   78 1    
    15    7    8 1    
    16    8    9 1    
    17    8   79 1    
    18    8   80 1    
    19    9   10 ar   
    20    9   14 ar   
    21   10   11 ar   
    22   10   81 1    
    23   11   12 ar   
    24   11   71 1    
    25   12   13 ar   
    26   12   82 1    
    27   13   14 ar   
    28   13   15 1    
    29   14   83 1    
    30   15   16 1    
    31   15   84 1    
    32   15   85 1    
    33   16   17 1    
    34   17   18 1    
    35   17   86 1    
    36   17   87 1    
    37   18   19 1    
    38   18   37 1    
    39   18   88 1    
    40   19   20 am   BACKBONE|DICT|INTERRES
    41   19   89 1    
    42   20   21 2    
    43   20   22 1    
    44   22   23 1    
    45   22   24 1    
    46   22   90 1    
    47   23   91 1    
    48   23   92 1    
    49   23   93 1    
    50   24   25 am   BACKBONE|DICT|INTERRES
    51   24   94 1    
    52   25   26 2    
    53   25   27 1    
    54   27   28 1    
    55   27   29 1    
    56   27   95 1    
    57   28   96 1    
    58   28   97 1    
    59   28   98 1    
    60   29   30 am   BACKBONE|DICT|INTERRES
    61   29   99 1    
    62   30   31 2    
    63   30   32 1    
    64   32   33 1    
    65   32   34 1    
    66   32  100 1    
    67   33  101 1    
    68   33  102 1    
    69   33  103 1    
    70   34   35 am   BACKBONE|DICT|INTERRES
    71   34  104 1    
    72   35   36 2    
    73   37   38 2    
    74   37   39 am   BACKBONE|DICT|INTERRES
    75   39   40 1    
    76   39  105 1    
    77   40   41 1    
    78   40   42 1    
    79   40  106 1    
    80   41  107 1    
    81   41  108 1    
    82   41  109 1    
    83   42   43 2    
    84   42   44 am   BACKBONE|DICT|INTERRES
    85   44   45 1    
    86   44  110 1    
    87   45   46 1    
    88   45   47 1    
    89   45  111 1    
    90   46  112 1    
    91   46  113 1    
    92   46  114 1    
    93   47   48 2    
    94   47   49 am   BACKBONE|DICT|INTERRES
    95   49   50 1    
    96   49  115 1    
    97   50   51 1    
    98   50   52 1    
    99   50  116 1    
   100   51  117 1    
   101   51  118 1    
   102   51  119 1    
   103   52   53 2    
   104   52   54 am   BACKBONE|DICT|INTERRES
   105   54   55 1    
   106   54  120 1    
   107   55   56 1    
   108   55   57 1    
   109   55  121 1    
   110   56  122 1    
   111   56  123 1    
   112   56  124 1    
   113   57   58 2    
   114   57   59 am   BACKBONE|DICT|INTERRES
   115   59   60 1    
   116   59  125 1    
   117   60   61 1    
   118   60   62 1    
   119   60  126 1    
   120   61  127 1    
   121   61  128 1    
   122   61  129 1    
   123   62   63 2    
   124   62   64 am   BACKBONE|DICT|INTERRES
   125   64   65 1    
   126   64  130 1    
   127   65   66 1    
   128   65   69 1    
   129   65  131 1    
   130   66   67 am   BACKBONE|DICT|INTERRES
   131   66   68 2    
   132   67  132 1    
   133   67  133 1    
   134   69   70 1    
   135   69  134 1    
   136   69  135 1    
   137   70   71 1    
   138   71  136 1    
   139   71  137 1    
@<TRIPOS>SUBSTRUCTURE
     1 UNK         1 GROUP             0       ****    0 ROOT    
