@<TRIPOS>MOLECULE
3R137
137   139    1
SMALL
USER_CHARGES


@<TRIPOS>ATOM
      1 CA         28.9716   -4.9665   -7.3408 C.3       0 UNK        -0.2020 
      2 C          28.7028   -5.8532   -6.1355 C.2       0 UNK         0.4855 
      3 O          29.3718   -6.8724   -5.9642 O.2       0 UNK        -0.5197 
      4 N          27.7278   -5.4757   -5.3031 N.am      1 UNK        -0.4892 
      5 CA         27.2915   -6.2423   -4.1329 C.3       1 UNK         0.0835 
      6 C6         28.2225   -6.0826   -2.8987 C.3       12 UNK        -0.0855 
      7 S7         28.2678   -4.4058   -2.1725 S.3       12 UNK        -0.2931 
      8 C8         29.7839   -3.7097   -2.9162 C.3       12 UNK         0.0378 
      9 C9         30.0757   -2.2457   -2.5707 C.ar      12 UNK        -0.0802 
     10 C10        31.2495   -1.6706   -3.0720 C.ar      12 UNK        -0.0944 
     11 C11        31.5645   -0.3344   -2.8074 C.ar      12 UNK        -0.0787 
     12 C12        30.6961    0.4353   -2.0300 C.ar      12 UNK        -0.0862 
     13 C13        29.5149   -0.1164   -1.5273 C.ar      12 UNK        -0.0733 
     14 C14        29.2152   -1.4552   -1.7928 C.ar      12 UNK        -0.0832 
     15 C15        28.5547    0.7403   -0.7099 C.3       12 UNK         0.0240 
     16 S16        26.9821    1.0627   -1.5801 S.3       12 UNK        -0.2522 
     17 C17        27.5587    1.7553   -3.1672 C.3       12 UNK        -0.0967 
     18 CA         27.3878    0.7180   -4.3136 C.3       5 UNK         0.0660 
     19 N          25.9804    0.4788   -4.6495 N.am      5 UNK        -0.4015 
     20 C          25.1633    1.3090   -5.3210 C.2       4 UNK         0.4946 
     21 O          25.5180    2.3894   -5.7969 O.2       4 UNK        -0.5353 
     22 CA         23.6944    0.8728   -5.4920 C.3       4 UNK         0.0277 
     23 CB         23.5023    0.1666   -6.8443 C.3       4 UNK        -0.1981 
     24 N          23.2267   -0.0146   -4.4261 N.am      4 UNK        -0.4209 
     25 C          23.1350    0.3077   -3.1280 C.2       3 UNK         0.4942 
     26 O          23.2526    1.4573   -2.7025 O.2       3 UNK        -0.5208 
     27 CA         22.8954   -0.8426   -2.1273 C.3       3 UNK         0.0250 
     28 CB         21.4992   -0.7229   -1.4928 C.3       3 UNK        -0.1990 
     29 N          23.0550   -2.2004   -2.6712 N.am      3 UNK        -0.4232 
     30 C          24.1714   -2.7140   -3.2074 C.2       2 UNK         0.4993 
     31 O          25.2164   -2.0770   -3.3749 O.2       2 UNK        -0.5286 
     32 CA         24.0772   -4.1608   -3.7033 C.3       2 UNK         0.0209 
     33 CB         23.2806   -4.2431   -5.0197 C.3       2 UNK        -0.1931 
     34 N          25.4285   -4.6635   -3.9194 N.am      2 UNK        -0.4546 
     35 C          25.8110   -5.9438   -3.8351 C.2       1 UNK         0.5154 
     36 O          25.0411   -6.8715   -3.5807 O.2       1 UNK        -0.5181 
     37 C          28.2080    1.0161   -5.5842 C.2       5 UNK         0.5014 
     38 O          28.2327    0.1715   -6.4820 O.2       5 UNK        -0.5248 
     39 N          28.8353    2.1982   -5.6696 N.am      6 UNK        -0.4434 
     40 CA         29.6958    2.6215   -6.7772 C.3       6 UNK         0.0363 
     41 CB         30.3208    3.9869   -6.4529 C.3       6 UNK        -0.1936 
     42 C          29.0190    2.6455   -8.1555 C.2       6 UNK         0.5081 
     43 O          29.7153    2.4557   -9.1516 O.2       6 UNK        -0.5248 
     44 N          27.6899    2.8150   -8.2008 N.am      7 UNK        -0.4718 
     45 CA         26.9027    2.7351   -9.4353 C.3       7 UNK         0.0273 
     46 CB         25.4900    3.2827   -9.1791 C.3       7 UNK        -0.1935 
     47 C          26.8446    1.3168  -10.0377 C.2       7 UNK         0.5018 
     48 O          26.5853    1.1926  -11.2354 O.2       7 UNK        -0.5186 
     49 N          27.0948    0.2871   -9.2164 N.am      8 UNK        -0.4240 
     50 CA         27.2011   -1.1097   -9.6362 C.3       8 UNK         0.0235 
     51 CB         26.3293   -1.9847   -8.7182 C.3       8 UNK        -0.2000 
     52 C          28.6604   -1.5884   -9.6073 C.2       8 UNK         0.4941 
     53 O          29.1013   -2.2384  -10.5553 O.2       8 UNK        -0.5273 
     54 N          29.3734   -1.2891   -8.5132 N.am      9 UNK        -0.4262 
     55 CA         30.7036   -1.8210   -8.2176 C.3       9 UNK         0.0264 
     56 CB         30.9072   -1.8232   -6.6932 C.3       9 UNK        -0.1955 
     57 C          31.8631   -1.0895   -8.9110 C.2       9 UNK         0.5031 
     58 O          32.9200   -1.7037   -9.0632 O.2       9 UNK        -0.5390 
     59 N          31.6724    0.1842   -9.2976 N.am      10 UNK        -0.4204 
     60 CA         32.6835    1.0837   -9.8771 C.3       10 UNK         0.0237 
     61 CB         33.0487    0.6421  -11.3107 C.3       10 UNK        -0.1985 
     62 C          33.9138    1.2408   -8.9586 C.2       10 UNK         0.4970 
     63 O          35.0340    0.9163   -9.3573 O.2       10 UNK        -0.4914 
     64 N          33.6590    1.6968   -7.7248 N.am      11 UNK        -0.4285 
     65 CA         34.6260    1.7705   -6.6133 C.3       11 UNK         0.1007 
     66 C          35.8525    2.7026   -6.8420 C.2       11 UNK         0.5703 
     67 N          35.8062    3.6454   -7.7759 N.am      11 UNK        -0.7361 
     68 O          36.8625    2.5661   -6.1557 O.2       11 UNK        -0.4986 
     69 C69        33.9347    2.1280   -5.2677 C.3       12 UNK        -0.0947 
     70 S70        32.4305    1.1539   -4.9313 S.3       12 UNK        -0.2240 
     71 C71        32.8242    0.2959   -3.3820 C.3       12 UNK         0.0194 
     72 H72        28.4775   -3.9989   -7.2556 H         1 UNK         0.0906 
     73 H73        30.0427   -4.7958   -7.4393 H         1 UNK         0.0906 
     74 H74        28.6202   -5.4511   -8.2512 H         1 UNK         0.0906 
     75 H75        27.1706   -4.6619   -5.5207 H         1 UNK         0.3140 
     76 H76        27.3164   -7.2982   -4.4141 H         1 UNK         0.1085 
     77 H77        29.2371   -6.3892   -3.1573 H         1 UNK         0.0836 
     78 H78        27.9070   -6.7729   -2.1142 H         1 UNK         0.0836 
     79 H79        30.6328   -4.3210   -2.6062 H         1 UNK         0.0731 
     80 H80        29.7123   -3.7999   -4.0005 H         1 UNK         0.0731 
     81 H81        31.9174   -2.2630   -3.6826 H         1 UNK         0.1312 
     82 H82        30.9335    1.4723   -1.8350 H         1 UNK         0.1406 
     83 H83        28.2916   -1.8577   -1.4021 H         1 UNK         0.1631 
     84 H84        29.0142    1.6947   -0.4482 H         1 UNK         0.0717 
     85 H85        28.3388    0.2375    0.2338 H         1 UNK         0.0717 
     86 H86        28.5986    2.0610   -3.0465 H         1 UNK         0.0934 
     87 H87        26.9954    2.6666   -3.3756 H         1 UNK         0.0934 
     88 H88        27.7735   -0.2394   -3.9608 H         1 UNK         0.0739 
     89 H89        25.6040   -0.3946   -4.2909 H         1 UNK         0.3093 
     90 H90        23.0785    1.7744   -5.4766 H         1 UNK         0.0818 
     91 H91        22.4530   -0.0678   -7.0244 H         1 UNK         0.0819 
     92 H92        23.8368    0.7946   -7.6699 H         1 UNK         0.0819 
     93 H93        24.0680   -0.7642   -6.8950 H         1 UNK         0.0819 
     94 H94        23.0913   -0.9831   -4.6736 H         1 UNK         0.3041 
     95 H95        23.6406   -0.7238   -1.3378 H         1 UNK         0.0784 
     96 H96        21.3567    0.2595   -1.0401 H         1 UNK         0.0793 
     97 H97        20.7080   -0.8586   -2.2313 H         1 UNK         0.0793 
     98 H98        21.3553   -1.4617   -0.7041 H         1 UNK         0.0793 
     99 H99        22.2415   -2.7959   -2.6040 H         1 UNK         0.3024 
    100 H100       23.5859   -4.7574   -2.9307 H         1 UNK         0.1171 
    101 H101       23.2121   -5.2708   -5.3769 H         1 UNK         0.0786 
    102 H102       23.7429   -3.6476   -5.8082 H         1 UNK         0.0786 
    103 H103       22.2598   -3.8817   -4.8906 H         1 UNK         0.0786 
    104 H104       26.1283   -3.9331   -3.9789 H         1 UNK         0.2977 
    105 H105       28.7262    2.8564   -4.9126 H         1 UNK         0.3127 
    106 H106       30.4975    1.8874   -6.8530 H         1 UNK         0.0770 
    107 H107       29.5605    4.7594   -6.3315 H         1 UNK         0.0814 
    108 H108       30.9899    4.3110   -7.2515 H         1 UNK         0.0814 
    109 H109       30.9108    3.9468   -5.5369 H         1 UNK         0.0814 
    110 H110       27.1763    2.9213   -7.3333 H         1 UNK         0.2983 
    111 H111       27.3819    3.3757  -10.1792 H         1 UNK         0.0947 
    112 H112       24.8890    3.2566  -10.0891 H         1 UNK         0.0806 
    113 H113       25.5219    4.3190   -8.8425 H         1 UNK         0.0806 
    114 H114       24.9624    2.7029   -8.4233 H         1 UNK         0.0806 
    115 H115       27.3267    0.4864   -8.2489 H         1 UNK         0.3000 
    116 H116       26.8366   -1.2311  -10.6586 H         1 UNK         0.0850 
    117 H117       26.4296   -3.0408   -8.9727 H         1 UNK         0.0810 
    118 H118       25.2751   -1.7283   -8.8210 H         1 UNK         0.0810 
    119 H119       26.6005   -1.8726   -7.6675 H         1 UNK         0.0810 
    120 H120       28.9282   -0.7570   -7.7646 H         1 UNK         0.3040 
    121 H121       30.7419   -2.8557   -8.5626 H         1 UNK         0.0766 
    122 H122       30.8264   -0.8192   -6.2792 H         1 UNK         0.0812 
    123 H123       31.8913   -2.2097   -6.4248 H         1 UNK         0.0812 
    124 H124       30.1662   -2.4433   -6.1900 H         1 UNK         0.0812 
    125 H125       30.7612    0.6044   -9.1524 H         1 UNK         0.3205 
    126 H126       32.2250    2.0707   -9.9493 H         1 UNK         0.0754 
    127 H127       33.7354    1.3516  -11.7740 H         1 UNK         0.0769 
    128 H128       32.1633    0.5872  -11.9441 H         1 UNK         0.0769 
    129 H129       33.5321   -0.3353  -11.3265 H         1 UNK         0.0769 
    130 H130       32.7090    1.9274   -7.4807 H         1 UNK         0.2981 
    131 H131       35.0343    0.7637   -6.5077 H         1 UNK         0.0541 
    132 H132       34.9845    3.7596   -8.3465 H         1 UNK         0.3459 
    133 H133       36.6068    4.2410   -7.9165 H         1 UNK         0.3459 
    134 H134       33.6430    3.1800   -5.2615 H         1 UNK         0.0612 
    135 H135       34.6340    2.0031   -4.4389 H         1 UNK         0.0612 
    136 H136       33.5885   -0.4601   -3.5675 H         1 UNK         0.0624 
    137 H137       33.2448    1.0033   -2.6657 H         1 UNK         0.0624 
@<TRIPOS>BOND
     1    1    2 1    
     2    1   72 1    
     3    1   73 1    
     4    1   74 1    
     5    2    3 2    
     6    2    4 am   BACKBONE|DICT|INTERRES
     7    4    5 1    
     8    4   75 1    
     9    5    6 1    
    10    5   35 1    
    11    5   76 1    
    12    6    7 1    
    13    6   77 1    
    14    6   78 1    
    15    7    8 1    
    16    8    9 1    
    17    8   79 1    
    18    8   80 1    
    19    9   10 ar   
    20    9   14 ar   
    21   10   11 ar   
    22   10   81 1    
    23   11   12 ar   
    24   11   71 1    
    25   12   13 ar   
    26   12   82 1    
    27   13   14 ar   
    28   13   15 1    
    29   14   83 1    
    30   15   16 1    
    31   15   84 1    
    32   15   85 1    
    33   16   17 1    
    34   17   18 1    
    35   17   86 1    
    36   17   87 1    
    37   18   19 1    
    38   18   37 1    
    39   18   88 1    
    40   19   20 am   BACKBONE|DICT|INTERRES
    41   19   89 1    
    42   20   21 2    
    43   20   22 1    
    44   22   23 1    
    45   22   24 1    
    46   22   90 1    
    47   23   91 1    
    48   23   92 1    
    49   23   93 1    
    50   24   25 am   BACKBONE|DICT|INTERRES
    51   24   94 1    
    52   25   26 2    
    53   25   27 1    
    54   27   28 1    
    55   27   29 1    
    56   27   95 1    
    57   28   96 1    
    58   28   97 1    
    59   28   98 1    
    60   29   30 am   BACKBONE|DICT|INTERRES
    61   29   99 1    
    62   30   31 2    
    63   30   32 1    
    64   32   33 1    
    65   32   34 1    
    66   32  100 1    
    67   33  101 1    
    68   33  102 1    
    69   33  103 1    
    70   34   35 am   BACKBONE|DICT|INTERRES
    71   34  104 1    
    72   35   36 2    
    73   37   38 2    
    74   37   39 am   BACKBONE|DICT|INTERRES
    75   39   40 1    
    76   39  105 1    
    77   40   41 1    
    78   40   42 1    
    79   40  106 1    
    80   41  107 1    
    81   41  108 1    
    82   41  109 1    
    83   42   43 2    
    84   42   44 am   BACKBONE|DICT|INTERRES
    85   44   45 1    
    86   44  110 1    
    87   45   46 1    
    88   45   47 1    
    89   45  111 1    
    90   46  112 1    
    91   46  113 1    
    92   46  114 1    
    93   47   48 2    
    94   47   49 am   BACKBONE|DICT|INTERRES
    95   49   50 1    
    96   49  115 1    
    97   50   51 1    
    98   50   52 1    
    99   50  116 1    
   100   51  117 1    
   101   51  118 1    
   102   51  119 1    
   103   52   53 2    
   104   52   54 am   BACKBONE|DICT|INTERRES
   105   54   55 1    
   106   54  120 1    
   107   55   56 1    
   108   55   57 1    
   109   55  121 1    
   110   56  122 1    
   111   56  123 1    
   112   56  124 1    
   113   57   58 2    
   114   57   59 am   BACKBONE|DICT|INTERRES
   115   59   60 1    
   116   59  125 1    
   117   60   61 1    
   118   60   62 1    
   119   60  126 1    
   120   61  127 1    
   121   61  128 1    
   122   61  129 1    
   123   62   63 2    
   124   62   64 am   BACKBONE|DICT|INTERRES
   125   64   65 1    
   126   64  130 1    
   127   65   66 1    
   128   65   69 1    
   129   65  131 1    
   130   66   67 am   BACKBONE|DICT|INTERRES
   131   66   68 2    
   132   67  132 1    
   133   67  133 1    
   134   69   70 1    
   135   69  134 1    
   136   69  135 1    
   137   70   71 1    
   138   71  136 1    
   139   71  137 1    
@<TRIPOS>SUBSTRUCTURE
     1 UNK         1 GROUP             0       ****    0 ROOT    
