@<TRIPOS>MOLECULE
3R137
137   139    1
SMALL
USER_CHARGES


@<TRIPOS>ATOM
      1 CA         30.9452   -6.0701   -6.2643 C.3       0 UNK        -0.2020 
      2 C          29.9393   -6.0202   -5.1245 C.2       0 UNK         0.4855 
      3 O          29.2612   -7.0144   -4.8640 O.2       0 UNK        -0.5197 
      4 N          29.8357   -4.8718   -4.4449 N.am      1 UNK        -0.4892 
      5 CA         28.8947   -4.6233   -3.3478 C.3       1 UNK         0.0835 
      6 C6         29.2787   -3.3640   -2.5318 C.3       12 UNK        -0.0855 
      7 S7         30.8928   -3.5483   -1.6986 S.3       12 UNK        -0.2931 
      8 C8         30.9719   -2.0211   -0.7080 C.3       12 UNK         0.0378 
      9 C9         31.3267   -0.8105   -1.5597 C.ar      12 UNK        -0.0802 
     10 C10        32.6672   -0.4830   -1.7949 C.ar      12 UNK        -0.0944 
     11 C11        32.9984    0.6110   -2.6015 C.ar      12 UNK        -0.0787 
     12 C12        31.9795    1.3969   -3.1440 C.ar      12 UNK        -0.0862 
     13 C13        30.6393    1.0752   -2.9222 C.ar      12 UNK        -0.0733 
     14 C14        30.3159   -0.0244   -2.1224 C.ar      12 UNK        -0.0832 
     15 C15        29.5502    1.8818   -3.6045 C.3       12 UNK         0.0240 
     16 S16        29.4504    1.3924   -5.3491 S.3       12 UNK        -0.2522 
     17 C17        27.9785    2.2934   -5.9165 C.3       12 UNK        -0.0967 
     18 CA         26.7307    1.3745   -5.8585 C.3       5 UNK         0.0660 
     19 N          26.1774    1.2370   -4.5095 N.am      5 UNK        -0.4015 
     20 C          25.5608    2.1747   -3.7756 C.2       4 UNK         0.4946 
     21 O          25.4162    3.3440   -4.1361 O.2       4 UNK        -0.5353 
     22 CA         24.9960    1.7193   -2.4116 C.3       4 UNK         0.0277 
     23 CB         24.0456    2.7578   -1.7856 C.3       4 UNK        -0.1981 
     24 N          24.2940    0.4362   -2.5168 N.am      4 UNK        -0.4209 
     25 C          24.8863   -0.7641   -2.5356 C.2       3 UNK         0.4942 
     26 O          26.0990   -0.9167   -2.3693 O.2       3 UNK        -0.5208 
     27 CA         24.0077   -1.9894   -2.8575 C.3       3 UNK         0.0250 
     28 CB         22.5964   -1.6405   -3.3860 C.3       3 UNK        -0.1990 
     29 N          24.6955   -2.8917   -3.7874 N.am      3 UNK        -0.4232 
     30 C          25.1473   -2.6030   -5.0163 C.2       2 UNK         0.4993 
     31 O          24.9742   -1.5178   -5.5769 O.2       2 UNK        -0.5286 
     32 CA         25.9702   -3.7039   -5.7128 C.3       2 UNK         0.0209 
     33 CB         26.2168   -3.3905   -7.2019 C.3       2 UNK        -0.1931 
     34 N          27.2612   -3.9213   -5.0503 N.am      2 UNK        -0.4546 
     35 C          27.4448   -4.5157   -3.8605 C.2       1 UNK         0.5154 
     36 O          26.5255   -4.9805   -3.1829 O.2       1 UNK        -0.5181 
     37 C          25.6382    1.7403   -6.8810 C.2       5 UNK         0.5014 
     38 O          25.7086    2.7804   -7.5389 O.2       5 UNK        -0.5248 
     39 N          24.6636    0.8327   -7.0332 N.am      6 UNK        -0.4434 
     40 CA         23.6171    0.8853   -8.0603 C.3       6 UNK         0.0363 
     41 CB         22.6029   -0.2401   -7.8011 C.3       6 UNK        -0.1936 
     42 C          24.1746    0.7925   -9.4952 C.2       6 UNK         0.5081 
     43 O          23.5589    1.3167  -10.4226 O.2       6 UNK        -0.5248 
     44 N          25.3493    0.1640   -9.6413 N.am      7 UNK        -0.4718 
     45 CA         26.1286    0.0715  -10.8786 C.3       7 UNK         0.0273 
     46 CB         26.8528   -1.2871  -10.8943 C.3       7 UNK        -0.1935 
     47 C          27.1227    1.2415  -11.0536 C.2       7 UNK         0.5018 
     48 O          28.0518    1.1206  -11.8520 O.2       7 UNK        -0.5186 
     49 N          26.9480    2.3333  -10.2917 N.am      8 UNK        -0.4240 
     50 CA         27.7507    3.5663  -10.2329 C.3       8 UNK         0.0235 
     51 CB         27.9010    4.2367  -11.6133 C.3       8 UNK        -0.2000 
     52 C          29.1109    3.4098   -9.5291 C.2       8 UNK         0.4941 
     53 O          29.5123    4.3237   -8.8077 O.2       8 UNK        -0.5273 
     54 N          29.7753    2.2637   -9.7016 N.am      9 UNK        -0.4262 
     55 CA         30.9715    1.8569   -8.9712 C.3       9 UNK         0.0264 
     56 CB         32.2345    2.4282   -9.6409 C.3       9 UNK        -0.1955 
     57 C          30.9938    0.3266   -8.9440 C.2       9 UNK         0.5031 
     58 O          30.8295   -0.2921   -9.9991 O.2       9 UNK        -0.5390 
     59 N          31.1812   -0.2564   -7.7553 N.am      10 UNK        -0.4204 
     60 CA         31.1422   -1.6992   -7.5255 C.3       10 UNK         0.0237 
     61 CB         29.6852   -2.2140   -7.5885 C.3       10 UNK        -0.1985 
     62 C          31.8208   -2.0338   -6.1911 C.2       10 UNK         0.4970 
     63 O          31.1747   -2.6014   -5.3105 O.2       10 UNK        -0.4914 
     64 N          33.1080   -1.6897   -6.0564 N.am      11 UNK        -0.4285 
     65 CA         33.9123   -2.0382   -4.8690 C.3       11 UNK         0.1007 
     66 C          34.2993   -3.5435   -4.7646 C.2       11 UNK         0.5703 
     67 N          34.1712   -4.3395   -5.8205 N.am      11 UNK        -0.7361 
     68 O          34.7263   -3.9964   -3.7050 O.2       11 UNK        -0.4986 
     69 C69        35.1702   -1.1432   -4.7074 C.3       12 UNK        -0.0947 
     70 S70        34.8217    0.6467   -4.6843 S.3       12 UNK        -0.2240 
     71 C71        34.4486    0.9408   -2.9226 C.3       12 UNK         0.0194 
     72 H72        31.4363   -5.1104   -6.4159 H         1 UNK         0.0906 
     73 H73        30.4471   -6.3450   -7.1935 H         1 UNK         0.0906 
     74 H74        31.7131   -6.8138   -6.0544 H         1 UNK         0.0906 
     75 H75        30.4229   -4.0755   -4.6981 H         1 UNK         0.3140 
     76 H76        28.9278   -5.4848   -2.6768 H         1 UNK         0.1085 
     77 H77        29.3141   -2.4872   -3.1813 H         1 UNK         0.0836 
     78 H78        28.5246   -3.1551   -1.7696 H         1 UNK         0.0836 
     79 H79        31.7224   -2.1501    0.0734 H         1 UNK         0.0731 
     80 H80        30.0232   -1.8642   -0.1921 H         1 UNK         0.0731 
     81 H81        33.4506   -1.0996   -1.3755 H         1 UNK         0.1312 
     82 H82        32.2307    2.2348   -3.7803 H         1 UNK         0.1406 
     83 H83        29.2781   -0.2841   -1.9595 H         1 UNK         0.1631 
     84 H84        29.7668    2.9486   -3.5315 H         1 UNK         0.0717 
     85 H85        28.5893    1.7184   -3.1157 H         1 UNK         0.0717 
     86 H86        27.8391    3.2142   -5.3483 H         1 UNK         0.0934 
     87 H87        28.1922    2.6037   -6.9388 H         1 UNK         0.0934 
     88 H88        27.0468    0.3706   -6.1494 H         1 UNK         0.0739 
     89 H89        26.2326    0.3064   -4.1115 H         1 UNK         0.3093 
     90 H90        25.8485    1.6041   -1.7384 H         1 UNK         0.0818 
     91 H91        23.6790    2.4259   -0.8141 H         1 UNK         0.0819 
     92 H92        23.1820    2.9510   -2.4233 H         1 UNK         0.0819 
     93 H93        24.5543    3.7098   -1.6278 H         1 UNK         0.0819 
     94 H94        23.3020    0.4806   -2.7019 H         1 UNK         0.3041 
     95 H95        23.8919   -2.5379   -1.9217 H         1 UNK         0.0784 
     96 H96        22.0128   -1.1003   -2.6397 H         1 UNK         0.0793 
     97 H97        22.6338   -1.0305   -4.2898 H         1 UNK         0.0793 
     98 H98        22.0369   -2.5447   -3.6264 H         1 UNK         0.0793 
     99 H99        25.0089   -3.7738   -3.3913 H         1 UNK         0.3024 
    100 H100       25.3915   -4.6290   -5.6571 H         1 UNK         0.1171 
    101 H101       25.2724   -3.2785   -7.7364 H         1 UNK         0.0786 
    102 H102       26.7741   -2.4635   -7.3359 H         1 UNK         0.0786 
    103 H103       26.7718   -4.1909   -7.6916 H         1 UNK         0.0786 
    104 H104       28.0790   -3.5662   -5.5232 H         1 UNK         0.2977 
    105 H105       24.6964   -0.0120   -6.4582 H         1 UNK         0.3127 
    106 H106       23.1032    1.8444   -7.9672 H         1 UNK         0.0770 
    107 H107       23.0707   -1.2243   -7.8549 H         1 UNK         0.0814 
    108 H108       21.7979   -0.2187   -8.5369 H         1 UNK         0.0814 
    109 H109       22.1450   -0.1418   -6.8166 H         1 UNK         0.0814 
    110 H110       25.7688   -0.2387   -8.8161 H         1 UNK         0.2983 
    111 H111       25.4504    0.1025  -11.7343 H         1 UNK         0.0947 
    112 H112       27.5970   -1.3539  -10.1010 H         1 UNK         0.0806 
    113 H113       27.3720   -1.4464  -11.8405 H         1 UNK         0.0806 
    114 H114       26.1528   -2.1137  -10.7702 H         1 UNK         0.0806 
    115 H115       26.1897    2.3087   -9.6193 H         1 UNK         0.3000 
    116 H116       27.1673    4.2467   -9.6096 H         1 UNK         0.0850 
    117 H117       28.3698    5.2168  -11.5165 H         1 UNK         0.0810 
    118 H118       26.9322    4.3865  -12.0900 H         1 UNK         0.0810 
    119 H119       28.5231    3.6505  -12.2902 H         1 UNK         0.0810 
    120 H120       29.3980    1.5702  -10.3423 H         1 UNK         0.3040 
    121 H121       30.9106    2.2315   -7.9468 H         1 UNK         0.0766 
    122 H122       33.1339    2.1120   -9.1109 H         1 UNK         0.0812 
    123 H123       32.2249    3.5185   -9.6419 H         1 UNK         0.0812 
    124 H124       32.3276    2.0929  -10.6749 H         1 UNK         0.0812 
    125 H125       31.2938    0.3179   -6.9279 H         1 UNK         0.3205 
    126 H126       31.7188   -2.1991   -8.3078 H         1 UNK         0.0754 
    127 H127       29.0543   -1.7074   -6.8557 H         1 UNK         0.0769 
    128 H128       29.6350   -3.2851   -7.3890 H         1 UNK         0.0769 
    129 H129       29.2483   -2.0576   -8.5740 H         1 UNK         0.0769 
    130 H130       33.5888   -1.2187   -6.8086 H         1 UNK         0.2981 
    131 H131       33.2795   -1.8578   -4.0008 H         1 UNK         0.0541 
    132 H132       33.8544   -3.9754   -6.7038 H         1 UNK         0.3459 
    133 H133       34.4333   -5.3089   -5.7372 H         1 UNK         0.3459 
    134 H134       35.8668   -1.3305   -5.5267 H         1 UNK         0.0612 
    135 H135       35.7096   -1.3981   -3.7930 H         1 UNK         0.0612 
    136 H136       34.6295    1.9930   -2.6986 H         1 UNK         0.0624 
    137 H137       35.1342    0.3715   -2.2933 H         1 UNK         0.0624 
@<TRIPOS>BOND
     1    1    2 1    
     2    1   72 1    
     3    1   73 1    
     4    1   74 1    
     5    2    3 2    
     6    2    4 am   BACKBONE|DICT|INTERRES
     7    4    5 1    
     8    4   75 1    
     9    5    6 1    
    10    5   35 1    
    11    5   76 1    
    12    6    7 1    
    13    6   77 1    
    14    6   78 1    
    15    7    8 1    
    16    8    9 1    
    17    8   79 1    
    18    8   80 1    
    19    9   10 ar   
    20    9   14 ar   
    21   10   11 ar   
    22   10   81 1    
    23   11   12 ar   
    24   11   71 1    
    25   12   13 ar   
    26   12   82 1    
    27   13   14 ar   
    28   13   15 1    
    29   14   83 1    
    30   15   16 1    
    31   15   84 1    
    32   15   85 1    
    33   16   17 1    
    34   17   18 1    
    35   17   86 1    
    36   17   87 1    
    37   18   19 1    
    38   18   37 1    
    39   18   88 1    
    40   19   20 am   BACKBONE|DICT|INTERRES
    41   19   89 1    
    42   20   21 2    
    43   20   22 1    
    44   22   23 1    
    45   22   24 1    
    46   22   90 1    
    47   23   91 1    
    48   23   92 1    
    49   23   93 1    
    50   24   25 am   BACKBONE|DICT|INTERRES
    51   24   94 1    
    52   25   26 2    
    53   25   27 1    
    54   27   28 1    
    55   27   29 1    
    56   27   95 1    
    57   28   96 1    
    58   28   97 1    
    59   28   98 1    
    60   29   30 am   BACKBONE|DICT|INTERRES
    61   29   99 1    
    62   30   31 2    
    63   30   32 1    
    64   32   33 1    
    65   32   34 1    
    66   32  100 1    
    67   33  101 1    
    68   33  102 1    
    69   33  103 1    
    70   34   35 am   BACKBONE|DICT|INTERRES
    71   34  104 1    
    72   35   36 2    
    73   37   38 2    
    74   37   39 am   BACKBONE|DICT|INTERRES
    75   39   40 1    
    76   39  105 1    
    77   40   41 1    
    78   40   42 1    
    79   40  106 1    
    80   41  107 1    
    81   41  108 1    
    82   41  109 1    
    83   42   43 2    
    84   42   44 am   BACKBONE|DICT|INTERRES
    85   44   45 1    
    86   44  110 1    
    87   45   46 1    
    88   45   47 1    
    89   45  111 1    
    90   46  112 1    
    91   46  113 1    
    92   46  114 1    
    93   47   48 2    
    94   47   49 am   BACKBONE|DICT|INTERRES
    95   49   50 1    
    96   49  115 1    
    97   50   51 1    
    98   50   52 1    
    99   50  116 1    
   100   51  117 1    
   101   51  118 1    
   102   51  119 1    
   103   52   53 2    
   104   52   54 am   BACKBONE|DICT|INTERRES
   105   54   55 1    
   106   54  120 1    
   107   55   56 1    
   108   55   57 1    
   109   55  121 1    
   110   56  122 1    
   111   56  123 1    
   112   56  124 1    
   113   57   58 2    
   114   57   59 am   BACKBONE|DICT|INTERRES
   115   59   60 1    
   116   59  125 1    
   117   60   61 1    
   118   60   62 1    
   119   60  126 1    
   120   61  127 1    
   121   61  128 1    
   122   61  129 1    
   123   62   63 2    
   124   62   64 am   BACKBONE|DICT|INTERRES
   125   64   65 1    
   126   64  130 1    
   127   65   66 1    
   128   65   69 1    
   129   65  131 1    
   130   66   67 am   BACKBONE|DICT|INTERRES
   131   66   68 2    
   132   67  132 1    
   133   67  133 1    
   134   69   70 1    
   135   69  134 1    
   136   69  135 1    
   137   70   71 1    
   138   71  136 1    
   139   71  137 1    
@<TRIPOS>SUBSTRUCTURE
     1 UNK         1 GROUP             0       ****    0 ROOT    
