@<TRIPOS>MOLECULE
3R137
137   139    1
SMALL
USER_CHARGES


@<TRIPOS>ATOM
      1 CA         31.2340    0.1235   -1.8539 C.3       0 UNK        -0.2020 
      2 C          30.0181   -0.7690   -2.0452 C.2       0 UNK         0.4855 
      3 O          29.1779   -0.4877   -2.9001 O.2       0 UNK        -0.5197 
      4 N          29.9238   -1.8427   -1.2497 N.am      1 UNK        -0.4892 
      5 CA         28.8158   -2.8048   -1.2552 C.3       1 UNK         0.0835 
      6 C6         29.0710   -4.0262   -0.3241 C.3       12 UNK        -0.0855 
      7 S7         30.7681   -4.7036   -0.3484 S.3       12 UNK        -0.2931 
      8 C8         30.6893   -5.9256   -1.6961 C.3       12 UNK         0.0378 
      9 C9         30.6949   -5.2533   -3.0604 C.ar      12 UNK        -0.0802 
     10 C10        31.7872   -4.4693   -3.4470 C.ar      12 UNK        -0.0944 
     11 C11        31.7938   -3.8199   -4.6834 C.ar      12 UNK        -0.0787 
     12 C12        30.7096   -3.9867   -5.5481 C.ar      12 UNK        -0.0862 
     13 C13        29.6033   -4.7500   -5.1671 C.ar      12 UNK        -0.0733 
     14 C14        29.6063   -5.3949   -3.9267 C.ar      12 UNK        -0.0832 
     15 C15        28.3904   -4.8401   -6.0820 C.3       12 UNK         0.0240 
     16 S16        26.9584   -3.9338   -5.4089 S.3       12 UNK        -0.2522 
     17 C17        27.5643   -2.2117   -5.3420 C.3       12 UNK        -0.0967 
     18 CA         27.0352   -1.3434   -6.5061 C.3       5 UNK         0.0660 
     19 N          25.5672   -1.2295   -6.4981 N.am      5 UNK        -0.4015 
     20 C          24.8382   -0.5419   -7.3929 C.2       4 UNK         0.4946 
     21 O          25.3312    0.1345   -8.2948 O.2       4 UNK        -0.5353 
     22 CA         23.3064   -0.5843   -7.2825 C.3       4 UNK         0.0277 
     23 CB         22.7353   -1.6163   -8.2679 C.3       4 UNK        -0.1981 
     24 N          22.7924   -0.8590   -5.9410 N.am      4 UNK        -0.4209 
     25 C          22.9674   -0.0804   -4.8650 C.2       3 UNK         0.4942 
     26 O          23.6399    0.9526   -4.8657 O.2       3 UNK        -0.5208 
     27 CA         22.2828   -0.5288   -3.5588 C.3       3 UNK         0.0250 
     28 CB         21.3141   -1.7238   -3.7240 C.3       3 UNK        -0.1990 
     29 N          23.2521   -0.8126   -2.4962 N.am      3 UNK        -0.4232 
     30 C          24.2892   -1.6600   -2.5567 C.2       2 UNK         0.4993 
     31 O          24.6047   -2.3097   -3.5571 O.2       2 UNK        -0.5286 
     32 CA         25.0821   -1.8313   -1.2589 C.3       2 UNK         0.0209 
     33 CB         24.3399   -2.7599   -0.2792 C.3       2 UNK        -0.1931 
     34 N          26.4010   -2.3886   -1.5516 N.am      2 UNK        -0.4546 
     35 C          27.4986   -2.1153   -0.8390 C.2       1 UNK         0.5154 
     36 O          27.4968   -1.3756    0.1499 O.2       1 UNK        -0.5181 
     37 C          27.7585    0.0199   -6.5173 C.2       5 UNK         0.5014 
     38 O          28.7733    0.1612   -7.2037 O.2       5 UNK        -0.5248 
     39 N          27.1913    1.0134   -5.8192 N.am      6 UNK        -0.4434 
     40 CA         27.6914    2.3882   -5.7579 C.3       6 UNK         0.0363 
     41 CB         26.8780    3.1653   -4.7108 C.3       6 UNK        -0.1936 
     42 C          27.6817    3.1317   -7.1089 C.2       6 UNK         0.5081 
     43 O          28.4258    4.1014   -7.2532 O.2       6 UNK        -0.5248 
     44 N          26.8572    2.6783   -8.0628 N.am      7 UNK        -0.4718 
     45 CA         26.7738    3.2194   -9.4195 C.3       7 UNK         0.0273 
     46 CB         25.3058    3.5443   -9.7430 C.3       7 UNK        -0.1935 
     47 C          27.3437    2.2345  -10.4506 C.2       7 UNK         0.5018 
     48 O          28.0645    2.6607  -11.3531 O.2       7 UNK        -0.5186 
     49 N          26.9979    0.9460  -10.3159 N.am      8 UNK        -0.4240 
     50 CA         27.3562   -0.1219  -11.2500 C.3       8 UNK         0.0235 
     51 CB         26.4915   -1.3625  -10.9693 C.3       8 UNK        -0.2000 
     52 C          28.8466   -0.4857  -11.2148 C.2       8 UNK         0.4941 
     53 O          29.4335   -0.6962  -12.2774 O.2       8 UNK        -0.5273 
     54 N          29.4253   -0.5575  -10.0089 N.am      9 UNK        -0.4262 
     55 CA         30.8486   -0.8211   -9.8003 C.3       9 UNK         0.0264 
     56 CB         31.0363   -1.8601   -8.6838 C.3       9 UNK        -0.1955 
     57 C          31.5903    0.4788   -9.4720 C.2       9 UNK         0.5031 
     58 O          32.6376    0.7267  -10.0707 O.2       9 UNK        -0.5390 
     59 N          31.0305    1.2772   -8.5453 N.am      10 UNK        -0.4204 
     60 CA         31.5708    2.5414   -8.0232 C.3       10 UNK         0.0237 
     61 CB         31.5252    3.6430   -9.1028 C.3       10 UNK        -0.1985 
     62 C          32.9723    2.3358   -7.4172 C.2       10 UNK         0.4970 
     63 O          33.9606    2.8694   -7.9242 O.2       10 UNK        -0.4914 
     64 N          33.0126    1.4925   -6.3791 N.am      11 UNK        -0.4285 
     65 CA         34.2102    0.8651   -5.7949 C.3       11 UNK         0.1007 
     66 C          35.3014    1.8293   -5.2440 C.2       11 UNK         0.5703 
     67 N          34.9854    3.0808   -4.9338 N.am      11 UNK        -0.7361 
     68 O          36.4530    1.4287   -5.0913 O.2       11 UNK        -0.4986 
     69 C69        33.8343   -0.1859   -4.7108 C.3       12 UNK        -0.0947 
     70 S70        32.3446   -1.1713   -5.1006 S.3       12 UNK        -0.2240 
     71 C71        32.9379   -2.8897   -5.0595 C.3       12 UNK         0.0194 
     72 H72        31.0852    0.7889   -1.0040 H         1 UNK         0.0906 
     73 H73        32.1323   -0.4693   -1.6813 H         1 UNK         0.0906 
     74 H74        31.3992    0.7360   -2.7400 H         1 UNK         0.0906 
     75 H75        30.6445   -2.0274   -0.5668 H         1 UNK         0.3140 
     76 H76        28.7134   -3.1633   -2.2817 H         1 UNK         0.1085 
     77 H77        28.8781   -3.7568    0.7170 H         1 UNK         0.0836 
     78 H78        28.3638   -4.8254   -0.5537 H         1 UNK         0.0836 
     79 H79        29.8117   -6.5609   -1.5666 H         1 UNK         0.0731 
     80 H80        31.5571   -6.5829   -1.6255 H         1 UNK         0.0731 
     81 H81        32.6178   -4.3404   -2.7664 H         1 UNK         0.1312 
     82 H82        30.7079   -3.4782   -6.4996 H         1 UNK         0.1406 
     83 H83        28.7485   -5.9833   -3.6296 H         1 UNK         0.1631 
     84 H84        28.1162   -5.8875   -6.2147 H         1 UNK         0.0717 
     85 H85        28.6201   -4.4541   -7.0765 H         1 UNK         0.0717 
     86 H86        27.2561   -1.7840   -4.3864 H         1 UNK         0.0934 
     87 H87        28.6547   -2.2054   -5.3209 H         1 UNK         0.0934 
     88 H88        27.3028   -1.8395   -7.4412 H         1 UNK         0.0739 
     89 H89        25.0887   -1.7426   -5.7667 H         1 UNK         0.3093 
     90 H90        22.9408    0.4025   -7.5744 H         1 UNK         0.0818 
     91 H91        21.6457   -1.5867   -8.2888 H         1 UNK         0.0819 
     92 H92        23.0812   -1.4190   -9.2839 H         1 UNK         0.0819 
     93 H93        23.0409   -2.6317   -8.0120 H         1 UNK         0.0819 
     94 H94        22.2474   -1.7016   -5.8289 H         1 UNK         0.3041 
     95 H95        21.6943    0.3259   -3.2219 H         1 UNK         0.0784 
     96 H96        20.5406   -1.5105   -4.4631 H         1 UNK         0.0793 
     97 H97        21.8293   -2.6363   -4.0274 H         1 UNK         0.0793 
     98 H98        20.8011   -1.9386   -2.7864 H         1 UNK         0.0793 
     99 H99        23.1007   -0.3077   -1.6339 H         1 UNK         0.3024 
    100 H100       25.1944   -0.8419   -0.8082 H         1 UNK         0.1171 
    101 H101       23.3493   -2.3719   -0.0385 H         1 UNK         0.0786 
    102 H102       24.2069   -3.7589   -0.6966 H         1 UNK         0.0786 
    103 H103       24.8824   -2.8601    0.6611 H         1 UNK         0.0786 
    104 H104       26.4463   -2.9523   -2.3920 H         1 UNK         0.2977 
    105 H105       26.3344    0.8206   -5.3185 H         1 UNK         0.3127 
    106 H106       28.7297    2.3447   -5.4221 H         1 UNK         0.0770 
    107 H107       25.8201    3.2083   -4.9740 H         1 UNK         0.0814 
    108 H108       27.2348    4.1923   -4.6209 H         1 UNK         0.0814 
    109 H109       26.9609    2.7077   -3.7248 H         1 UNK         0.0814 
    110 H110       26.2984    1.8533   -7.8717 H         1 UNK         0.2983 
    111 H111       27.3487    4.1447   -9.5000 H         1 UNK         0.0947 
    112 H112       25.2069    3.9406  -10.7546 H         1 UNK         0.0806 
    113 H113       24.9094    4.2963   -9.0605 H         1 UNK         0.0806 
    114 H114       24.6689    2.6614   -9.6731 H         1 UNK         0.0806 
    115 H115       26.3749    0.6817   -9.5521 H         1 UNK         0.3000 
    116 H116       27.1260    0.2286  -12.2586 H         1 UNK         0.0850 
    117 H117       26.7115   -2.1609  -11.6793 H         1 UNK         0.0810 
    118 H118       25.4294   -1.1332  -11.0579 H         1 UNK         0.0810 
    119 H119       26.6639   -1.7589   -9.9681 H         1 UNK         0.0810 
    120 H120       28.8807   -0.3333   -9.1838 H         1 UNK         0.3040 
    121 H121       31.2937   -1.2366  -10.7071 H         1 UNK         0.0766 
    122 H122       30.6518   -1.5070   -7.7279 H         1 UNK         0.0812 
    123 H123       32.0930   -2.0894   -8.5402 H         1 UNK         0.0812 
    124 H124       30.5302   -2.7946   -8.9261 H         1 UNK         0.0812 
    125 H125       30.1896    0.9361   -8.0812 H         1 UNK         0.3205 
    126 H126       30.9158    2.8518   -7.2080 H         1 UNK         0.0754 
    127 H127       31.8585    4.5987   -8.6968 H         1 UNK         0.0769 
    128 H128       30.5102    3.7850   -9.4753 H         1 UNK         0.0769 
    129 H129       32.1649    3.4091   -9.9544 H         1 UNK         0.0769 
    130 H130       32.1424    1.1003   -6.0503 H         1 UNK         0.2981 
    131 H131       34.6806    0.3237   -6.6176 H         1 UNK         0.0541 
    132 H132       34.0464    3.4176   -5.0714 H         1 UNK         0.3459 
    133 H133       35.6987    3.6982   -4.5797 H         1 UNK         0.3459 
    134 H134       33.6392    0.3086   -3.7577 H         1 UNK         0.0612 
    135 H135       34.6794   -0.8527   -4.5327 H         1 UNK         0.0612 
    136 H136       33.3392   -3.1613   -6.0368 H         1 UNK         0.0624 
    137 H137       33.7543   -2.9842   -4.3422 H         1 UNK         0.0624 
@<TRIPOS>BOND
     1    1    2 1    
     2    1   72 1    
     3    1   73 1    
     4    1   74 1    
     5    2    3 2    
     6    2    4 am   BACKBONE|DICT|INTERRES
     7    4    5 1    
     8    4   75 1    
     9    5    6 1    
    10    5   35 1    
    11    5   76 1    
    12    6    7 1    
    13    6   77 1    
    14    6   78 1    
    15    7    8 1    
    16    8    9 1    
    17    8   79 1    
    18    8   80 1    
    19    9   10 ar   
    20    9   14 ar   
    21   10   11 ar   
    22   10   81 1    
    23   11   12 ar   
    24   11   71 1    
    25   12   13 ar   
    26   12   82 1    
    27   13   14 ar   
    28   13   15 1    
    29   14   83 1    
    30   15   16 1    
    31   15   84 1    
    32   15   85 1    
    33   16   17 1    
    34   17   18 1    
    35   17   86 1    
    36   17   87 1    
    37   18   19 1    
    38   18   37 1    
    39   18   88 1    
    40   19   20 am   BACKBONE|DICT|INTERRES
    41   19   89 1    
    42   20   21 2    
    43   20   22 1    
    44   22   23 1    
    45   22   24 1    
    46   22   90 1    
    47   23   91 1    
    48   23   92 1    
    49   23   93 1    
    50   24   25 am   BACKBONE|DICT|INTERRES
    51   24   94 1    
    52   25   26 2    
    53   25   27 1    
    54   27   28 1    
    55   27   29 1    
    56   27   95 1    
    57   28   96 1    
    58   28   97 1    
    59   28   98 1    
    60   29   30 am   BACKBONE|DICT|INTERRES
    61   29   99 1    
    62   30   31 2    
    63   30   32 1    
    64   32   33 1    
    65   32   34 1    
    66   32  100 1    
    67   33  101 1    
    68   33  102 1    
    69   33  103 1    
    70   34   35 am   BACKBONE|DICT|INTERRES
    71   34  104 1    
    72   35   36 2    
    73   37   38 2    
    74   37   39 am   BACKBONE|DICT|INTERRES
    75   39   40 1    
    76   39  105 1    
    77   40   41 1    
    78   40   42 1    
    79   40  106 1    
    80   41  107 1    
    81   41  108 1    
    82   41  109 1    
    83   42   43 2    
    84   42   44 am   BACKBONE|DICT|INTERRES
    85   44   45 1    
    86   44  110 1    
    87   45   46 1    
    88   45   47 1    
    89   45  111 1    
    90   46  112 1    
    91   46  113 1    
    92   46  114 1    
    93   47   48 2    
    94   47   49 am   BACKBONE|DICT|INTERRES
    95   49   50 1    
    96   49  115 1    
    97   50   51 1    
    98   50   52 1    
    99   50  116 1    
   100   51  117 1    
   101   51  118 1    
   102   51  119 1    
   103   52   53 2    
   104   52   54 am   BACKBONE|DICT|INTERRES
   105   54   55 1    
   106   54  120 1    
   107   55   56 1    
   108   55   57 1    
   109   55  121 1    
   110   56  122 1    
   111   56  123 1    
   112   56  124 1    
   113   57   58 2    
   114   57   59 am   BACKBONE|DICT|INTERRES
   115   59   60 1    
   116   59  125 1    
   117   60   61 1    
   118   60   62 1    
   119   60  126 1    
   120   61  127 1    
   121   61  128 1    
   122   61  129 1    
   123   62   63 2    
   124   62   64 am   BACKBONE|DICT|INTERRES
   125   64   65 1    
   126   64  130 1    
   127   65   66 1    
   128   65   69 1    
   129   65  131 1    
   130   66   67 am   BACKBONE|DICT|INTERRES
   131   66   68 2    
   132   67  132 1    
   133   67  133 1    
   134   69   70 1    
   135   69  134 1    
   136   69  135 1    
   137   70   71 1    
   138   71  136 1    
   139   71  137 1    
@<TRIPOS>SUBSTRUCTURE
     1 UNK         1 GROUP             0       ****    0 ROOT    
