@<TRIPOS>MOLECULE
3R137
137   139    1
SMALL
USER_CHARGES


@<TRIPOS>ATOM
      1 CA         29.0858   -3.4016    2.2100 C.3       0 UNK        -0.2020 
      2 C          28.8398   -3.0306    0.7559 C.2       0 UNK         0.4855 
      3 O          29.1730   -1.9208    0.3392 O.2       0 UNK        -0.5197 
      4 N          28.2463   -3.9428   -0.0232 N.am      1 UNK        -0.4892 
      5 CA         27.9561   -3.7918   -1.4559 C.3       1 UNK         0.0835 
      6 C6         27.8860   -5.1718   -2.1641 C.3       12 UNK        -0.0855 
      7 S7         29.3600   -6.2468   -1.9804 S.3       12 UNK        -0.2931 
      8 C8         30.7954   -5.1274   -2.1920 C.3       12 UNK         0.0378 
      9 C9         30.7403   -4.2366   -3.4325 C.ar      12 UNK        -0.0802 
     10 C10        31.2815   -2.9479   -3.3741 C.ar      12 UNK        -0.0944 
     11 C11        31.2005   -2.0889   -4.4742 C.ar      12 UNK        -0.0787 
     12 C12        30.5499   -2.5163   -5.6340 C.ar      12 UNK        -0.0862 
     13 C13        30.0154   -3.8052   -5.7112 C.ar      12 UNK        -0.0733 
     14 C14        30.1457   -4.6703   -4.6223 C.ar      12 UNK        -0.0832 
     15 C15        29.2666   -4.2538   -6.9574 C.3       12 UNK         0.0240 
     16 S16        27.5533   -4.7729   -6.6016 S.3       12 UNK        -0.2522 
     17 C17        26.8672   -3.3586   -5.6693 C.3       12 UNK        -0.0967 
     18 CA         26.2720   -2.2656   -6.5905 C.3       5 UNK         0.0660 
     19 N          25.0523   -1.6806   -6.0330 N.am      5 UNK        -0.4015 
     20 C          24.0076   -1.2782   -6.7704 C.2       4 UNK         0.4946 
     21 O          23.9403   -1.4012   -7.9939 O.2       4 UNK        -0.5353 
     22 CA         22.8378   -0.6117   -6.0247 C.3       4 UNK         0.0277 
     23 CB         21.8229   -1.6689   -5.5604 C.3       4 UNK        -0.1981 
     24 N          23.2574    0.1969   -4.8778 N.am      4 UNK        -0.4209 
     25 C          24.0377    1.2836   -4.9579 C.2       3 UNK         0.4942 
     26 O          24.4803    1.7342   -6.0128 O.2       3 UNK        -0.5208 
     27 CA         24.4248    1.9612   -3.6343 C.3       3 UNK         0.0250 
     28 CB         23.3655    3.0029   -3.2398 C.3       3 UNK        -0.1990 
     29 N          24.6456    1.0413   -2.5122 N.am      3 UNK        -0.4232 
     30 C          25.4777   -0.0112   -2.4951 C.2       2 UNK         0.4993 
     31 O          26.1180   -0.3973   -3.4787 O.2       2 UNK        -0.5286 
     32 CA         25.6034   -0.7209   -1.1338 C.3       2 UNK         0.0209 
     33 CB         24.2506   -1.2929   -0.6537 C.3       2 UNK        -0.1931 
     34 N          26.6551   -1.7448   -1.0970 N.am      2 UNK        -0.4546 
     35 C          26.6861   -2.9412   -1.7006 C.2       1 UNK         0.5154 
     36 O          25.7675   -3.3869   -2.3912 O.2       1 UNK        -0.5181 
     37 C          27.2947   -1.1619   -6.9133 C.2       5 UNK         0.5014 
     38 O          27.9271   -1.2193   -7.9682 O.2       5 UNK        -0.5248 
     39 N          27.4171   -0.1499   -6.0393 N.am      6 UNK        -0.4434 
     40 CA         28.3197    0.9933   -6.2244 C.3       6 UNK         0.0363 
     41 CB         28.3353    1.8557   -4.9549 C.3       6 UNK        -0.1936 
     42 C          28.0036    1.8492   -7.4669 C.2       6 UNK         0.5081 
     43 O          28.9115    2.4636   -8.0237 O.2       6 UNK        -0.5248 
     44 N          26.7366    1.8601   -7.9028 N.am      7 UNK        -0.4718 
     45 CA         26.3039    2.4571   -9.1682 C.3       7 UNK         0.0273 
     46 CB         24.7733    2.5977   -9.1618 C.3       7 UNK        -0.1935 
     47 C          26.7602    1.6640  -10.4084 C.2       7 UNK         0.5018 
     48 O          26.8711    2.2566  -11.4825 O.2       7 UNK        -0.5186 
     49 N          26.9970    0.3530  -10.2556 N.am      8 UNK        -0.4240 
     50 CA         27.4447   -0.5393  -11.3256 C.3       8 UNK         0.0235 
     51 CB         26.8498   -1.9430  -11.1178 C.3       8 UNK        -0.2000 
     52 C          28.9770   -0.5971  -11.4008 C.2       8 UNK         0.4941 
     53 O          29.5261   -0.4960  -12.4989 O.2       8 UNK        -0.5273 
     54 N          29.6372   -0.7468  -10.2455 N.am      9 UNK        -0.4262 
     55 CA         31.0913   -0.7647  -10.1074 C.3       9 UNK         0.0264 
     56 CB         31.5489   -2.1616   -9.6518 C.3       9 UNK        -0.1955 
     57 C          31.4785    0.3191   -9.0984 C.2       9 UNK         0.5031 
     58 O          31.3184    0.1148   -7.8949 O.2       9 UNK        -0.5390 
     59 N          31.9468    1.4644   -9.6074 N.am      10 UNK        -0.4204 
     60 CA         32.3230    2.6387   -8.8207 C.3       10 UNK         0.0237 
     61 CB         32.4166    3.8591   -9.7549 C.3       10 UNK        -0.1985 
     62 C          33.6265    2.4105   -8.0359 C.2       10 UNK         0.4970 
     63 O          34.7087    2.7025   -8.5494 O.2       10 UNK        -0.4914 
     64 N          33.4943    1.8826   -6.8140 N.am      11 UNK        -0.4285 
     65 CA         34.5796    1.7098   -5.8375 C.3       11 UNK         0.1007 
     66 C          35.2456    3.0558   -5.4355 C.2       11 UNK         0.5703 
     67 N          36.5529    3.0601   -5.2125 N.am      11 UNK        -0.7361 
     68 O          34.5824    4.0806   -5.2824 O.2       11 UNK        -0.4986 
     69 C69        34.0903    0.9580   -4.5727 C.3       12 UNK        -0.0947 
     70 S70        33.5579   -0.7487   -4.9273 S.3       12 UNK        -0.2240 
     71 C71        31.8161   -0.7007   -4.4077 C.3       12 UNK         0.0194 
     72 H72        28.7454   -4.4119    2.4367 H         1 UNK         0.0906 
     73 H73        30.1502   -3.3442    2.4360 H         1 UNK         0.0906 
     74 H74        28.5598   -2.7103    2.8678 H         1 UNK         0.0906 
     75 H75        27.9771   -4.8314    0.3755 H         1 UNK         0.3140 
     76 H76        28.7651   -3.2198   -1.9110 H         1 UNK         0.1085 
     77 H77        27.0266   -5.7361   -1.7971 H         1 UNK         0.0836 
     78 H78        27.7096   -5.0357   -3.2324 H         1 UNK         0.0836 
     79 H79        30.8850   -4.5153   -1.2931 H         1 UNK         0.0731 
     80 H80        31.7019   -5.7317   -2.2402 H         1 UNK         0.0731 
     81 H81        31.7655   -2.6078   -2.4684 H         1 UNK         0.1312 
     82 H82        30.4599   -1.8421   -6.4745 H         1 UNK         0.1406 
     83 H83        29.7327   -5.6674   -4.6899 H         1 UNK         0.1631 
     84 H84        29.2424   -3.4636   -7.7070 H         1 UNK         0.0717 
     85 H85        29.8013   -5.0885   -7.4123 H         1 UNK         0.0717 
     86 H86        26.0769   -3.7832   -5.0482 H         1 UNK         0.0934 
     87 H87        27.5913   -2.9571   -4.9580 H         1 UNK         0.0934 
     88 H88        26.0105   -2.7366   -7.5409 H         1 UNK         0.0739 
     89 H89        25.0568   -1.4917   -5.0375 H         1 UNK         0.3093 
     90 H90        22.3388    0.0547   -6.7318 H         1 UNK         0.0818 
     91 H91        20.9424   -1.2060   -5.1144 H         1 UNK         0.0819 
     92 H92        21.4775   -2.2728   -6.4010 H         1 UNK         0.0819 
     93 H93        22.2545   -2.3500   -4.8258 H         1 UNK         0.0819 
     94 H94        22.9438   -0.1006   -3.9655 H         1 UNK         0.3041 
     95 H95        25.3625    2.4906   -3.8024 H         1 UNK         0.0784 
     96 H96        23.1952    3.7128   -4.0508 H         1 UNK         0.0793 
     97 H97        22.4066    2.5379   -3.0073 H         1 UNK         0.0793 
     98 H98        23.6794    3.5802   -2.3699 H         1 UNK         0.0793 
     99 H99        24.1633    1.2760   -1.6564 H         1 UNK         0.3024 
    100 H100       25.9182    0.0404   -0.4178 H         1 UNK         0.1171 
    101 H101       24.3633   -1.8437    0.2802 H         1 UNK         0.0786 
    102 H102       23.5250   -0.5006   -0.4683 H         1 UNK         0.0786 
    103 H103       23.8084   -1.9679   -1.3872 H         1 UNK         0.0786 
    104 H104       27.4874   -1.4981   -0.5679 H         1 UNK         0.2977 
    105 H105       26.8903   -0.1803   -5.1683 H         1 UNK         0.3127 
    106 H106       29.3210    0.5854   -6.3616 H         1 UNK         0.0770 
    107 H107       27.3755    2.3427   -4.7934 H         1 UNK         0.0814 
    108 H108       29.0889    2.6407   -5.0302 H         1 UNK         0.0814 
    109 H109       28.5696    1.2625   -4.0707 H         1 UNK         0.0814 
    110 H110       26.0172    1.4333   -7.3275 H         1 UNK         0.2983 
    111 H111       26.7393    3.4561   -9.2419 H         1 UNK         0.0947 
    112 H112       24.4147    3.0376  -10.0935 H         1 UNK         0.0806 
    113 H113       24.4391    3.2442   -8.3501 H         1 UNK         0.0806 
    114 H114       24.2808    1.6312   -9.0436 H         1 UNK         0.0806 
    115 H115       26.9574   -0.0455   -9.3244 H         1 UNK         0.3000 
    116 H116       27.0769   -0.1653  -12.2838 H         1 UNK         0.0850 
    117 H117       27.1277   -2.6064  -11.9377 H         1 UNK         0.0810 
    118 H118       25.7607   -1.9096  -11.0823 H         1 UNK         0.0810 
    119 H119       27.1985   -2.4067  -10.1948 H         1 UNK         0.0810 
    120 H120       29.1066   -0.8145   -9.3780 H         1 UNK         0.3040 
    121 H121       31.5789   -0.5455  -11.0596 H         1 UNK         0.0766 
    122 H122       31.2748   -2.9247  -10.3801 H         1 UNK         0.0812 
    123 H123       31.1107   -2.4410   -8.6948 H         1 UNK         0.0812 
    124 H124       32.6325   -2.1957   -9.5340 H         1 UNK         0.0812 
    125 H125       32.0539    1.5422  -10.6083 H         1 UNK         0.3205 
    126 H126       31.5291    2.8399   -8.0986 H         1 UNK         0.0754 
    127 H127       32.7062    4.7524   -9.1997 H         1 UNK         0.0769 
    128 H128       31.4560    4.0697  -10.2258 H         1 UNK         0.0769 
    129 H129       33.1539    3.7128  -10.5454 H         1 UNK         0.0769 
    130 H130       32.5756    1.5812   -6.5210 H         1 UNK         0.2981 
    131 H131       35.3423    1.0973   -6.3226 H         1 UNK         0.0541 
    132 H132       36.9997    3.9202   -4.9354 H         1 UNK         0.3459 
    133 H133       37.1036    2.2225   -5.3217 H         1 UNK         0.3459 
    134 H134       33.2813    1.5091   -4.0894 H         1 UNK         0.0612 
    135 H135       34.8922    0.8906   -3.8350 H         1 UNK         0.0612 
    136 H136       31.2667   -0.0078   -5.0460 H         1 UNK         0.0624 
    137 H137       31.7474   -0.3117   -3.3906 H         1 UNK         0.0624 
@<TRIPOS>BOND
     1    1    2 1    
     2    1   72 1    
     3    1   73 1    
     4    1   74 1    
     5    2    3 2    
     6    2    4 am   BACKBONE|DICT|INTERRES
     7    4    5 1    
     8    4   75 1    
     9    5    6 1    
    10    5   35 1    
    11    5   76 1    
    12    6    7 1    
    13    6   77 1    
    14    6   78 1    
    15    7    8 1    
    16    8    9 1    
    17    8   79 1    
    18    8   80 1    
    19    9   10 ar   
    20    9   14 ar   
    21   10   11 ar   
    22   10   81 1    
    23   11   12 ar   
    24   11   71 1    
    25   12   13 ar   
    26   12   82 1    
    27   13   14 ar   
    28   13   15 1    
    29   14   83 1    
    30   15   16 1    
    31   15   84 1    
    32   15   85 1    
    33   16   17 1    
    34   17   18 1    
    35   17   86 1    
    36   17   87 1    
    37   18   19 1    
    38   18   37 1    
    39   18   88 1    
    40   19   20 am   BACKBONE|DICT|INTERRES
    41   19   89 1    
    42   20   21 2    
    43   20   22 1    
    44   22   23 1    
    45   22   24 1    
    46   22   90 1    
    47   23   91 1    
    48   23   92 1    
    49   23   93 1    
    50   24   25 am   BACKBONE|DICT|INTERRES
    51   24   94 1    
    52   25   26 2    
    53   25   27 1    
    54   27   28 1    
    55   27   29 1    
    56   27   95 1    
    57   28   96 1    
    58   28   97 1    
    59   28   98 1    
    60   29   30 am   BACKBONE|DICT|INTERRES
    61   29   99 1    
    62   30   31 2    
    63   30   32 1    
    64   32   33 1    
    65   32   34 1    
    66   32  100 1    
    67   33  101 1    
    68   33  102 1    
    69   33  103 1    
    70   34   35 am   BACKBONE|DICT|INTERRES
    71   34  104 1    
    72   35   36 2    
    73   37   38 2    
    74   37   39 am   BACKBONE|DICT|INTERRES
    75   39   40 1    
    76   39  105 1    
    77   40   41 1    
    78   40   42 1    
    79   40  106 1    
    80   41  107 1    
    81   41  108 1    
    82   41  109 1    
    83   42   43 2    
    84   42   44 am   BACKBONE|DICT|INTERRES
    85   44   45 1    
    86   44  110 1    
    87   45   46 1    
    88   45   47 1    
    89   45  111 1    
    90   46  112 1    
    91   46  113 1    
    92   46  114 1    
    93   47   48 2    
    94   47   49 am   BACKBONE|DICT|INTERRES
    95   49   50 1    
    96   49  115 1    
    97   50   51 1    
    98   50   52 1    
    99   50  116 1    
   100   51  117 1    
   101   51  118 1    
   102   51  119 1    
   103   52   53 2    
   104   52   54 am   BACKBONE|DICT|INTERRES
   105   54   55 1    
   106   54  120 1    
   107   55   56 1    
   108   55   57 1    
   109   55  121 1    
   110   56  122 1    
   111   56  123 1    
   112   56  124 1    
   113   57   58 2    
   114   57   59 am   BACKBONE|DICT|INTERRES
   115   59   60 1    
   116   59  125 1    
   117   60   61 1    
   118   60   62 1    
   119   60  126 1    
   120   61  127 1    
   121   61  128 1    
   122   61  129 1    
   123   62   63 2    
   124   62   64 am   BACKBONE|DICT|INTERRES
   125   64   65 1    
   126   64  130 1    
   127   65   66 1    
   128   65   69 1    
   129   65  131 1    
   130   66   67 am   BACKBONE|DICT|INTERRES
   131   66   68 2    
   132   67  132 1    
   133   67  133 1    
   134   69   70 1    
   135   69  134 1    
   136   69  135 1    
   137   70   71 1    
   138   71  136 1    
   139   71  137 1    
@<TRIPOS>SUBSTRUCTURE
     1 UNK         1 GROUP             0       ****    0 ROOT    
