@<TRIPOS>MOLECULE
3R137
137   139    1
SMALL
USER_CHARGES


@<TRIPOS>ATOM
      1 CA         27.0726   -3.7537    3.2120 C.3       0 UNK        -0.2020 
      2 C          27.3351   -2.5760    2.2851 C.2       0 UNK         0.4855 
      3 O          27.0814   -1.4313    2.6627 O.2       0 UNK        -0.5197 
      4 N          27.8502   -2.8467    1.0798 N.am      1 UNK        -0.4892 
      5 CA         28.1171   -1.8448    0.0407 C.3       1 UNK         0.0835 
      6 C6         29.0864   -2.3814   -1.0417 C.3       12 UNK        -0.0855 
      7 S7         30.7232   -2.7920   -0.3415 S.3       12 UNK        -0.2931 
      8 C8         30.9766   -4.5005   -0.9219 C.3       12 UNK         0.0378 
      9 C9         31.2305   -4.5451   -2.4215 C.ar      12 UNK        -0.0802 
     10 C10        32.4558   -4.1114   -2.9368 C.ar      12 UNK        -0.0944 
     11 C11        32.6934   -4.1059   -4.3146 C.ar      12 UNK        -0.0787 
     12 C12        31.6902   -4.5672   -5.1765 C.ar      12 UNK        -0.0862 
     13 C13        30.4536   -4.9845   -4.6766 C.ar      12 UNK        -0.0733 
     14 C14        30.2363   -4.9920   -3.2958 C.ar      12 UNK        -0.0832 
     15 C15        29.3357   -5.3609   -5.6411 C.3       12 UNK         0.0240 
     16 S16        27.8385   -4.3366   -5.4232 S.3       12 UNK        -0.2522 
     17 C17        28.4893   -2.6265   -5.4062 C.3       12 UNK        -0.0967 
     18 CA         28.1457   -1.8194   -6.6792 C.3       5 UNK         0.0660 
     19 N          26.7145   -1.8172   -6.9905 N.am      5 UNK        -0.4015 
     20 C          26.1651   -1.2592   -8.0794 C.2       4 UNK         0.4946 
     21 O          26.8177   -0.7271   -8.9786 O.2       4 UNK        -0.5353 
     22 CA         24.6295   -1.2527   -8.1752 C.3       4 UNK         0.0277 
     23 CB         24.1450   -2.4108   -9.0608 C.3       4 UNK        -0.1981 
     24 N          23.9608   -1.3184   -6.8718 N.am      4 UNK        -0.4209 
     25 C          24.0464   -0.3808   -5.9169 C.2       3 UNK         0.4942 
     26 O          24.6479    0.6850   -6.0686 O.2       3 UNK        -0.5208 
     27 CA         23.3675   -0.6949   -4.5663 C.3       3 UNK         0.0250 
     28 CB         23.2407   -2.2101   -4.2837 C.3       3 UNK        -0.1990 
     29 N          24.0153   -0.0377   -3.4227 N.am      3 UNK        -0.4232 
     30 C          25.3082   -0.1091   -3.0687 C.2       2 UNK         0.4993 
     31 O          26.1737   -0.6820   -3.7357 O.2       2 UNK        -0.5286 
     32 CA         25.7186    0.6025   -1.7611 C.3       2 UNK         0.0209 
     33 CB         24.5439    0.8603   -0.7879 C.3       2 UNK        -0.1931 
     34 N          26.8153   -0.0927   -1.0714 N.am      2 UNK        -0.4546 
     35 C          26.8026   -1.3493   -0.5989 C.2       1 UNK         0.5154 
     36 O          25.8292   -2.1066   -0.6634 O.2       1 UNK        -0.5181 
     37 C          28.6951   -0.3839   -6.5667 C.2       5 UNK         0.5014 
     38 O          29.7437   -0.0874   -7.1391 O.2       5 UNK        -0.5248 
     39 N          27.9598    0.4880   -5.8652 N.am      6 UNK        -0.4434 
     40 CA         28.2602    1.9140   -5.7792 C.3       6 UNK         0.0363 
     41 CB         27.6697    2.4872   -4.4819 C.3       6 UNK        -0.1936 
     42 C          27.7370    2.6879   -6.9991 C.2       6 UNK         0.5081 
     43 O          28.4777    3.4944   -7.5598 O.2       6 UNK        -0.5248 
     44 N          26.4676    2.4644   -7.3672 N.am      7 UNK        -0.4718 
     45 CA         25.7452    3.2992   -8.3311 C.3       7 UNK         0.0273 
     46 CB         24.2320    3.0843   -8.1671 C.3       7 UNK        -0.1935 
     47 C          26.1531    3.0984   -9.7984 C.2       7 UNK         0.5018 
     48 O          26.1442    4.0762  -10.5481 O.2       7 UNK        -0.5186 
     49 N          26.4633    1.8570  -10.1949 N.am      8 UNK        -0.4240 
     50 CA         26.7480    1.4916  -11.5844 C.3       8 UNK         0.0235 
     51 CB         25.7976    0.3669  -12.0333 C.3       8 UNK        -0.2000 
     52 C          28.2119    1.0797  -11.7665 C.2       8 UNK         0.4941 
     53 O          28.8703    1.5977  -12.6694 O.2       8 UNK        -0.5273 
     54 N          28.6990    0.1567  -10.9247 N.am      9 UNK        -0.4262 
     55 CA         30.0587   -0.3858  -11.0212 C.3       9 UNK         0.0264 
     56 CB         30.1322   -1.7360  -10.2917 C.3       9 UNK        -0.1955 
     57 C          31.1420    0.5738  -10.4985 C.2       9 UNK         0.5031 
     58 O          32.2859    0.4726  -10.9446 O.2       9 UNK        -0.5390 
     59 N          30.7691    1.4695   -9.5701 N.am      10 UNK        -0.4204 
     60 CA         31.6262    2.4369   -8.8705 C.3       10 UNK         0.0237 
     61 CB         32.1206    3.5319   -9.8396 C.3       10 UNK        -0.1985 
     62 C          32.7669    1.7591   -8.0841 C.2       10 UNK         0.4970 
     63 O          33.9090    2.2212   -8.1227 O.2       10 UNK        -0.4914 
     64 N          32.4310    0.6603   -7.3976 N.am      11 UNK        -0.4285 
     65 CA         33.3612   -0.1805   -6.6312 C.3       11 UNK         0.1007 
     66 C          33.8433    0.4393   -5.2864 C.2       11 UNK         0.5703 
     67 N          33.2086    1.4877   -4.7743 N.am      11 UNK        -0.7361 
     68 O          34.8193   -0.0274   -4.7048 O.2       11 UNK        -0.4986 
     69 C69        32.7685   -1.6028   -6.4387 C.3       12 UNK        -0.0947 
     70 S70        34.0225   -2.9256   -6.5359 S.3       12 UNK        -0.2240 
     71 C71        34.0351   -3.5777   -4.8279 C.3       12 UNK         0.0194 
     72 H72        27.3589   -4.7024    2.7583 H         1 UNK         0.0906 
     73 H73        27.6370   -3.6367    4.1367 H         1 UNK         0.0906 
     74 H74        26.0134   -3.8041    3.4631 H         1 UNK         0.0906 
     75 H75        28.0220   -3.8053    0.8148 H         1 UNK         0.3140 
     76 H76        28.5908   -0.9871    0.5245 H         1 UNK         0.1085 
     77 H77        28.6567   -3.2536   -1.5373 H         1 UNK         0.0836 
     78 H78        29.2434   -1.6381   -1.8261 H         1 UNK         0.0836 
     79 H79        31.8341   -4.9273   -0.3995 H         1 UNK         0.0731 
     80 H80        30.1166   -5.1139   -0.6487 H         1 UNK         0.0731 
     81 H81        33.2190   -3.7537   -2.2587 H         1 UNK         0.1312 
     82 H82        31.8522   -4.5681   -6.2450 H         1 UNK         0.1406 
     83 H83        29.2773   -5.3097   -2.9093 H         1 UNK         0.1631 
     84 H84        29.0735   -6.4093   -5.4939 H         1 UNK         0.0717 
     85 H85        29.6677   -5.2684   -6.6764 H         1 UNK         0.0717 
     86 H86        29.5699   -2.6309   -5.2636 H         1 UNK         0.0934 
     87 H87        28.0883   -2.1412   -4.5161 H         1 UNK         0.0934 
     88 H88        28.6485   -2.3006   -7.5188 H         1 UNK         0.0739 
     89 H89        26.1104   -2.2261   -6.2932 H         1 UNK         0.3093 
     90 H90        24.3398   -0.3150   -8.6528 H         1 UNK         0.0818 
     91 H91        23.0665   -2.3696   -9.2141 H         1 UNK         0.0819 
     92 H92        24.6111   -2.3693  -10.0464 H         1 UNK         0.0819 
     93 H93        24.3876   -3.3818   -8.6271 H         1 UNK         0.0819 
     94 H94        23.4387   -2.1594   -6.6719 H         1 UNK         0.3041 
     95 H95        22.3614   -0.2781   -4.6294 H         1 UNK         0.0784 
     96 H96        22.5908   -2.7055   -5.0057 H         1 UNK         0.0793 
     97 H97        24.2110   -2.7090   -4.3054 H         1 UNK         0.0793 
     98 H98        22.8053   -2.3890   -3.3003 H         1 UNK         0.0793 
     99 H99        23.4002    0.5023   -2.8312 H         1 UNK         0.3024 
    100 H100       26.1131    1.5741   -2.0605 H         1 UNK         0.1171 
    101 H101       24.8965    1.3073    0.1418 H         1 UNK         0.0786 
    102 H102       24.0173   -0.0598   -0.5306 H         1 UNK         0.0786 
    103 H103       23.8168    1.5538   -1.2116 H         1 UNK         0.0786 
    104 H104       27.6769    0.4306   -1.0018 H         1 UNK         0.2977 
    105 H105       27.1233    0.1580   -5.3919 H         1 UNK         0.3127 
    106 H106       29.3436    2.0472   -5.7371 H         1 UNK         0.0770 
    107 H107       26.5837    2.3893   -4.4550 H         1 UNK         0.0814 
    108 H108       27.9043    3.5478   -4.3825 H         1 UNK         0.0814 
    109 H109       28.0780    1.9811   -3.6073 H         1 UNK         0.0814 
    110 H110       25.9116    1.7828   -6.8526 H         1 UNK         0.2983 
    111 H111       25.9557    4.3424   -8.0837 H         1 UNK         0.0947 
    112 H112       23.6691    3.7404   -8.8324 H         1 UNK         0.0806 
    113 H113       23.9084    3.3012   -7.1489 H         1 UNK         0.0806 
    114 H114       23.9413    2.0596   -8.3984 H         1 UNK         0.0806 
    115 H115       26.4913    1.1039   -9.5142 H         1 UNK         0.3000 
    116 H116       26.5721    2.3420  -12.2467 H         1 UNK         0.0850 
    117 H117       25.9754    0.1022  -13.0764 H         1 UNK         0.0810 
    118 H118       24.7555    0.6756  -11.9512 H         1 UNK         0.0810 
    119 H119       25.9229   -0.5410  -11.4436 H         1 UNK         0.0810 
    120 H120       28.0852   -0.2343  -10.2110 H         1 UNK         0.3040 
    121 H121       30.2730   -0.5714  -12.0761 H         1 UNK         0.0766 
    122 H122       31.1031   -2.2081  -10.4476 H         1 UNK         0.0812 
    123 H123       30.0024   -1.6196   -9.2184 H         1 UNK         0.0812 
    124 H124       29.3714   -2.4286  -10.6518 H         1 UNK         0.0812 
    125 H125       29.8131    1.4231   -9.2453 H         1 UNK         0.3205 
    126 H126       30.9972    2.9211   -8.1233 H         1 UNK         0.0754 
    127 H127       32.6576    4.3154   -9.3035 H         1 UNK         0.0769 
    128 H128       31.2866    4.0073  -10.3563 H         1 UNK         0.0769 
    129 H129       32.7978    3.1306  -10.5942 H         1 UNK         0.0769 
    130 H130       31.4542    0.3686   -7.3861 H         1 UNK         0.2981 
    131 H131       34.2555   -0.2717   -7.2508 H         1 UNK         0.0541 
    132 H132       32.4117    1.8820   -5.2460 H         1 UNK         0.3459 
    133 H133       33.5342    1.8863   -3.9081 H         1 UNK         0.3459 
    134 H134       32.0516   -1.8248   -7.2314 H         1 UNK         0.0612 
    135 H135       32.1961   -1.6700   -5.5119 H         1 UNK         0.0612 
    136 H136       34.7677   -4.3836   -4.7725 H         1 UNK         0.0624 
    137 H137       34.3954   -2.7855   -4.1697 H         1 UNK         0.0624 
@<TRIPOS>BOND
     1    1    2 1    
     2    1   72 1    
     3    1   73 1    
     4    1   74 1    
     5    2    3 2    
     6    2    4 am   BACKBONE|DICT|INTERRES
     7    4    5 1    
     8    4   75 1    
     9    5    6 1    
    10    5   35 1    
    11    5   76 1    
    12    6    7 1    
    13    6   77 1    
    14    6   78 1    
    15    7    8 1    
    16    8    9 1    
    17    8   79 1    
    18    8   80 1    
    19    9   10 ar   
    20    9   14 ar   
    21   10   11 ar   
    22   10   81 1    
    23   11   12 ar   
    24   11   71 1    
    25   12   13 ar   
    26   12   82 1    
    27   13   14 ar   
    28   13   15 1    
    29   14   83 1    
    30   15   16 1    
    31   15   84 1    
    32   15   85 1    
    33   16   17 1    
    34   17   18 1    
    35   17   86 1    
    36   17   87 1    
    37   18   19 1    
    38   18   37 1    
    39   18   88 1    
    40   19   20 am   BACKBONE|DICT|INTERRES
    41   19   89 1    
    42   20   21 2    
    43   20   22 1    
    44   22   23 1    
    45   22   24 1    
    46   22   90 1    
    47   23   91 1    
    48   23   92 1    
    49   23   93 1    
    50   24   25 am   BACKBONE|DICT|INTERRES
    51   24   94 1    
    52   25   26 2    
    53   25   27 1    
    54   27   28 1    
    55   27   29 1    
    56   27   95 1    
    57   28   96 1    
    58   28   97 1    
    59   28   98 1    
    60   29   30 am   BACKBONE|DICT|INTERRES
    61   29   99 1    
    62   30   31 2    
    63   30   32 1    
    64   32   33 1    
    65   32   34 1    
    66   32  100 1    
    67   33  101 1    
    68   33  102 1    
    69   33  103 1    
    70   34   35 am   BACKBONE|DICT|INTERRES
    71   34  104 1    
    72   35   36 2    
    73   37   38 2    
    74   37   39 am   BACKBONE|DICT|INTERRES
    75   39   40 1    
    76   39  105 1    
    77   40   41 1    
    78   40   42 1    
    79   40  106 1    
    80   41  107 1    
    81   41  108 1    
    82   41  109 1    
    83   42   43 2    
    84   42   44 am   BACKBONE|DICT|INTERRES
    85   44   45 1    
    86   44  110 1    
    87   45   46 1    
    88   45   47 1    
    89   45  111 1    
    90   46  112 1    
    91   46  113 1    
    92   46  114 1    
    93   47   48 2    
    94   47   49 am   BACKBONE|DICT|INTERRES
    95   49   50 1    
    96   49  115 1    
    97   50   51 1    
    98   50   52 1    
    99   50  116 1    
   100   51  117 1    
   101   51  118 1    
   102   51  119 1    
   103   52   53 2    
   104   52   54 am   BACKBONE|DICT|INTERRES
   105   54   55 1    
   106   54  120 1    
   107   55   56 1    
   108   55   57 1    
   109   55  121 1    
   110   56  122 1    
   111   56  123 1    
   112   56  124 1    
   113   57   58 2    
   114   57   59 am   BACKBONE|DICT|INTERRES
   115   59   60 1    
   116   59  125 1    
   117   60   61 1    
   118   60   62 1    
   119   60  126 1    
   120   61  127 1    
   121   61  128 1    
   122   61  129 1    
   123   62   63 2    
   124   62   64 am   BACKBONE|DICT|INTERRES
   125   64   65 1    
   126   64  130 1    
   127   65   66 1    
   128   65   69 1    
   129   65  131 1    
   130   66   67 am   BACKBONE|DICT|INTERRES
   131   66   68 2    
   132   67  132 1    
   133   67  133 1    
   134   69   70 1    
   135   69  134 1    
   136   69  135 1    
   137   70   71 1    
   138   71  136 1    
   139   71  137 1    
@<TRIPOS>SUBSTRUCTURE
     1 UNK         1 GROUP             0       ****    0 ROOT    
