@<TRIPOS>MOLECULE
3R137
137   139    1
SMALL
USER_CHARGES


@<TRIPOS>ATOM
      1 CA         27.9228   -5.0112    1.5535 C.3       0 UNK        -0.2020 
      2 C          27.9674   -3.4911    1.5936 C.2       0 UNK         0.4855 
      3 O          28.6356   -2.9212    2.4567 O.2       0 UNK        -0.5197 
      4 N          27.2623   -2.8339    0.6672 N.am      1 UNK        -0.4892 
      5 CA         27.2229   -1.3742    0.5166 C.3       1 UNK         0.0835 
      6 C6         28.3151   -0.8462   -0.4517 C.3       12 UNK        -0.0855 
      7 S7         28.3007   -1.6260   -2.1076 S.3       12 UNK        -0.2931 
      8 C8         29.8583   -2.5702   -2.0535 C.3       12 UNK         0.0378 
      9 C9         30.2966   -3.0406   -3.4344 C.ar      12 UNK        -0.0802 
     10 C10        31.5051   -2.5934   -3.9816 C.ar      12 UNK        -0.0944 
     11 C11        31.9379   -3.0618   -5.2257 C.ar      12 UNK        -0.0787 
     12 C12        31.1404   -3.9652   -5.9354 C.ar      12 UNK        -0.0862 
     13 C13        29.9299   -4.4178   -5.4020 C.ar      12 UNK        -0.0733 
     14 C14        29.5171   -3.9565   -4.1477 C.ar      12 UNK        -0.0832 
     15 C15        29.0959   -5.4432   -6.1594 C.3       12 UNK         0.0240 
     16 S16        28.2204   -4.7244   -7.5857 S.3       12 UNK        -0.2522 
     17 C17        26.9773   -3.6676   -6.7679 C.3       12 UNK        -0.0967 
     18 CA         26.7568   -2.3115   -7.4829 C.3       5 UNK         0.0660 
     19 N          25.5577   -1.6434   -6.9689 N.am      5 UNK        -0.4015 
     20 C          25.0730   -0.4499   -7.3425 C.2       4 UNK         0.4946 
     21 O          25.6065    0.2710   -8.1853 O.2       4 UNK        -0.5353 
     22 CA         23.7690    0.0281   -6.6737 C.3       4 UNK         0.0277 
     23 CB         22.6439    0.1445   -7.7158 C.3       4 UNK        -0.1981 
     24 N          23.3170   -0.8339   -5.5740 N.am      4 UNK        -0.4209 
     25 C          23.8644   -0.8599   -4.3521 C.2       3 UNK         0.4942 
     26 O          24.7994   -0.1374   -4.0011 O.2       3 UNK        -0.5208 
     27 CA         23.3134   -1.9162   -3.3901 C.3       3 UNK         0.0250 
     28 CB         23.9750   -3.2841   -3.6505 C.3       3 UNK        -0.1990 
     29 N          23.5724   -1.4956   -2.0172 N.am      3 UNK        -0.4232 
     30 C          22.8926   -1.9010   -0.9394 C.2       2 UNK         0.4993 
     31 O          21.9519   -2.6963   -0.9907 O.2       2 UNK        -0.5286 
     32 CA         23.3603   -1.3479    0.4213 C.3       2 UNK         0.0209 
     33 CB         22.5461   -1.9080    1.6039 C.3       2 UNK        -0.1931 
     34 N          24.7808   -1.6272    0.6524 N.am      2 UNK        -0.4546 
     35 C          25.7969   -0.8875    0.1865 C.2       1 UNK         0.5154 
     36 O          25.6246    0.1341   -0.4806 O.2       1 UNK        -0.5181 
     37 C          28.0116   -1.4139   -7.4482 C.2       5 UNK         0.5014 
     38 O          28.6893   -1.2957   -8.4695 O.2       5 UNK        -0.5248 
     39 N          28.2618   -0.7500   -6.3090 N.am      6 UNK        -0.4434 
     40 CA         29.3838    0.1776   -6.1425 C.3       6 UNK         0.0363 
     41 CB         29.4986    0.6223   -4.6774 C.3       6 UNK        -0.1936 
     42 C          29.3117    1.4055   -7.0614 C.2       6 UNK         0.5081 
     43 O          30.3510    1.8509   -7.5430 O.2       6 UNK        -0.5248 
     44 N          28.1002    1.9227   -7.3046 N.am      7 UNK        -0.4718 
     45 CA         27.8635    3.0395   -8.2205 C.3       7 UNK         0.0273 
     46 CB         26.4752    3.6467   -7.9601 C.3       7 UNK        -0.1935 
     47 C          28.0156    2.6113   -9.6877 C.2       7 UNK         0.5018 
     48 O          28.6400    3.3337  -10.4644 O.2       7 UNK        -0.5186 
     49 N          27.4697    1.4353  -10.0287 N.am      8 UNK        -0.4240 
     50 CA         27.5401    0.8299  -11.3598 C.3       8 UNK         0.0235 
     51 CB         26.6166   -0.3982  -11.4138 C.3       8 UNK        -0.2000 
     52 C          28.9725    0.4566  -11.7767 C.2       8 UNK         0.4941 
     53 O          29.3709    0.7572  -12.9026 O.2       8 UNK        -0.5273 
     54 N          29.7222   -0.1768  -10.8646 N.am      9 UNK        -0.4262 
     55 CA         31.1137   -0.5856  -11.0760 C.3       9 UNK         0.0264 
     56 CB         31.4198   -1.7868  -10.1675 C.3       9 UNK        -0.1955 
     57 C          32.1350    0.5468  -10.8522 C.2       9 UNK         0.5031 
     58 O          33.2997    0.3661  -11.2112 O.2       9 UNK        -0.5390 
     59 N          31.6964    1.6754  -10.2721 N.am      10 UNK        -0.4204 
     60 CA         32.4868    2.8534   -9.8884 C.3       10 UNK         0.0237 
     61 CB         33.0481    3.5762  -11.1318 C.3       10 UNK        -0.1985 
     62 C          33.5633    2.5173   -8.8362 C.2       10 UNK         0.4970 
     63 O          34.7291    2.8871   -8.9929 O.2       10 UNK        -0.4914 
     64 N          33.1419    1.8025   -7.7885 N.am      11 UNK        -0.4285 
     65 CA         33.9682    1.3877   -6.6482 C.3       11 UNK         0.1007 
     66 C          34.2718    2.5682   -5.6874 C.2       11 UNK         0.5703 
     67 N          35.4067    2.5302   -5.0022 N.am      11 UNK        -0.7361 
     68 O          33.4798    3.4959   -5.5282 O.2       11 UNK        -0.4986 
     69 C69        33.3228    0.1993   -5.8876 C.3       12 UNK        -0.0947 
     70 S70        33.1528   -1.2662   -6.9604 S.3       12 UNK        -0.2240 
     71 C71        33.2914   -2.6436   -5.7830 C.3       12 UNK         0.0194 
     72 H72        27.5225   -5.3999    2.4895 H         1 UNK         0.0906 
     73 H73        27.3004   -5.3810    0.7389 H         1 UNK         0.0906 
     74 H74        28.9273   -5.4118    1.4202 H         1 UNK         0.0906 
     75 H75        26.7505   -3.3502   -0.0357 H         1 UNK         0.3140 
     76 H76        27.4231   -0.9216    1.4906 H         1 UNK         0.1085 
     77 H77        28.2311    0.2345   -0.5801 H         1 UNK         0.0836 
     78 H78        29.2913   -0.9965    0.0107 H         1 UNK         0.0836 
     79 H79        29.7334   -3.4322   -1.3965 H         1 UNK         0.0731 
     80 H80        30.6387   -1.9518   -1.6077 H         1 UNK         0.0731 
     81 H81        32.1230   -1.8976   -3.4306 H         1 UNK         0.1312 
     82 H82        31.4703   -4.3307   -6.8985 H         1 UNK         0.1406 
     83 H83        28.5907   -4.3127   -3.7178 H         1 UNK         0.1631 
     84 H84        28.3721   -5.9219   -5.4979 H         1 UNK         0.0717 
     85 H85        29.7497   -6.2397   -6.5177 H         1 UNK         0.0717 
     86 H86        26.0453   -4.2352   -6.7528 H         1 UNK         0.0934 
     87 H87        27.2416   -3.5070   -5.7222 H         1 UNK         0.0934 
     88 H88        26.5503   -2.5206   -8.5347 H         1 UNK         0.0739 
     89 H89        25.0347   -2.1499   -6.2725 H         1 UNK         0.3093 
     90 H90        23.9648    1.0253   -6.2732 H         1 UNK         0.0818 
     91 H91        21.7331    0.5492   -7.2740 H         1 UNK         0.0819 
     92 H92        22.9307    0.8142   -8.5281 H         1 UNK         0.0819 
     93 H93        22.4027   -0.8214   -8.1613 H         1 UNK         0.0819 
     94 H94        22.5517   -1.4617   -5.7798 H         1 UNK         0.3041 
     95 H95        22.2345   -1.9932   -3.5426 H         1 UNK         0.0784 
     96 H96        23.7868   -3.6295   -4.6676 H         1 UNK         0.0793 
     97 H97        25.0564   -3.2401   -3.5110 H         1 UNK         0.0793 
     98 H98        23.5849   -4.0485   -2.9782 H         1 UNK         0.0793 
     99 H99        24.3209   -0.8153   -1.9101 H         1 UNK         0.3024 
    100 H100       23.2039   -0.2667    0.3957 H         1 UNK         0.1171 
    101 H101       22.8657   -1.4683    2.5489 H         1 UNK         0.0786 
    102 H102       21.4845   -1.6847    1.4888 H         1 UNK         0.0786 
    103 H103       22.6450   -2.9911    1.6870 H         1 UNK         0.0786 
    104 H104       24.9999   -2.4573    1.1848 H         1 UNK         0.2977 
    105 H105       27.6526   -0.8829   -5.5144 H         1 UNK         0.3127 
    106 H106       30.2927   -0.3669   -6.4052 H         1 UNK         0.0770 
    107 H107       28.5499    0.9905   -4.2855 H         1 UNK         0.0814 
    108 H108       30.2324    1.4213   -4.5614 H         1 UNK         0.0814 
    109 H109       29.8313   -0.2004   -4.0488 H         1 UNK         0.0814 
    110 H110       27.2868    1.4595   -6.9244 H         1 UNK         0.2983 
    111 H111       28.6112    3.8109   -8.0212 H         1 UNK         0.0947 
    112 H112       26.2990    4.5037   -8.6116 H         1 UNK         0.0806 
    113 H113       26.3828    3.9978   -6.9323 H         1 UNK         0.0806 
    114 H114       25.6736    2.9307   -8.1431 H         1 UNK         0.0806 
    115 H115       26.9370    0.9301   -9.3227 H         1 UNK         0.3000 
    116 H116       27.1688    1.5659  -12.0761 H         1 UNK         0.0850 
    117 H117       26.6287   -0.8537  -12.4049 H         1 UNK         0.0810 
    118 H118       25.5840   -0.1269  -11.1927 H         1 UNK         0.0810 
    119 H119       26.9196   -1.1630  -10.6978 H         1 UNK         0.0810 
    120 H120       29.3025   -0.4409   -9.9727 H         1 UNK         0.3040 
    121 H121       31.2280   -0.9155  -12.1107 H         1 UNK         0.0766 
    122 H122       31.2665   -1.5394   -9.1176 H         1 UNK         0.0812 
    123 H123       32.4532   -2.1177  -10.2793 H         1 UNK         0.0812 
    124 H124       30.7779   -2.6357  -10.4030 H         1 UNK         0.0812 
    125 H125       30.7266    1.7000   -9.9862 H         1 UNK         0.3205 
    126 H126       31.7900    3.5373   -9.4008 H         1 UNK         0.0754 
    127 H127       33.5327    4.5124  -10.8521 H         1 UNK         0.0769 
    128 H128       32.2545    3.8206  -11.8380 H         1 UNK         0.0769 
    129 H129       33.7890    2.9713  -11.6553 H         1 UNK         0.0769 
    130 H130       32.1427    1.6283   -7.7035 H         1 UNK         0.2981 
    131 H131       34.9241    1.0455   -7.0504 H         1 UNK         0.0541 
    132 H132       36.0602    1.7709   -5.1157 H         1 UNK         0.3459 
    133 H133       35.6174    3.2803   -4.3626 H         1 UNK         0.3459 
    134 H134       32.3416    0.4718   -5.4990 H         1 UNK         0.0612 
    135 H135       33.9321   -0.0691   -5.0232 H         1 UNK         0.0612 
    136 H136       33.7426   -3.4908   -6.3017 H         1 UNK         0.0624 
    137 H137       33.9810   -2.3882   -4.9774 H         1 UNK         0.0624 
@<TRIPOS>BOND
     1    1    2 1    
     2    1   72 1    
     3    1   73 1    
     4    1   74 1    
     5    2    3 2    
     6    2    4 am   BACKBONE|DICT|INTERRES
     7    4    5 1    
     8    4   75 1    
     9    5    6 1    
    10    5   35 1    
    11    5   76 1    
    12    6    7 1    
    13    6   77 1    
    14    6   78 1    
    15    7    8 1    
    16    8    9 1    
    17    8   79 1    
    18    8   80 1    
    19    9   10 ar   
    20    9   14 ar   
    21   10   11 ar   
    22   10   81 1    
    23   11   12 ar   
    24   11   71 1    
    25   12   13 ar   
    26   12   82 1    
    27   13   14 ar   
    28   13   15 1    
    29   14   83 1    
    30   15   16 1    
    31   15   84 1    
    32   15   85 1    
    33   16   17 1    
    34   17   18 1    
    35   17   86 1    
    36   17   87 1    
    37   18   19 1    
    38   18   37 1    
    39   18   88 1    
    40   19   20 am   BACKBONE|DICT|INTERRES
    41   19   89 1    
    42   20   21 2    
    43   20   22 1    
    44   22   23 1    
    45   22   24 1    
    46   22   90 1    
    47   23   91 1    
    48   23   92 1    
    49   23   93 1    
    50   24   25 am   BACKBONE|DICT|INTERRES
    51   24   94 1    
    52   25   26 2    
    53   25   27 1    
    54   27   28 1    
    55   27   29 1    
    56   27   95 1    
    57   28   96 1    
    58   28   97 1    
    59   28   98 1    
    60   29   30 am   BACKBONE|DICT|INTERRES
    61   29   99 1    
    62   30   31 2    
    63   30   32 1    
    64   32   33 1    
    65   32   34 1    
    66   32  100 1    
    67   33  101 1    
    68   33  102 1    
    69   33  103 1    
    70   34   35 am   BACKBONE|DICT|INTERRES
    71   34  104 1    
    72   35   36 2    
    73   37   38 2    
    74   37   39 am   BACKBONE|DICT|INTERRES
    75   39   40 1    
    76   39  105 1    
    77   40   41 1    
    78   40   42 1    
    79   40  106 1    
    80   41  107 1    
    81   41  108 1    
    82   41  109 1    
    83   42   43 2    
    84   42   44 am   BACKBONE|DICT|INTERRES
    85   44   45 1    
    86   44  110 1    
    87   45   46 1    
    88   45   47 1    
    89   45  111 1    
    90   46  112 1    
    91   46  113 1    
    92   46  114 1    
    93   47   48 2    
    94   47   49 am   BACKBONE|DICT|INTERRES
    95   49   50 1    
    96   49  115 1    
    97   50   51 1    
    98   50   52 1    
    99   50  116 1    
   100   51  117 1    
   101   51  118 1    
   102   51  119 1    
   103   52   53 2    
   104   52   54 am   BACKBONE|DICT|INTERRES
   105   54   55 1    
   106   54  120 1    
   107   55   56 1    
   108   55   57 1    
   109   55  121 1    
   110   56  122 1    
   111   56  123 1    
   112   56  124 1    
   113   57   58 2    
   114   57   59 am   BACKBONE|DICT|INTERRES
   115   59   60 1    
   116   59  125 1    
   117   60   61 1    
   118   60   62 1    
   119   60  126 1    
   120   61  127 1    
   121   61  128 1    
   122   61  129 1    
   123   62   63 2    
   124   62   64 am   BACKBONE|DICT|INTERRES
   125   64   65 1    
   126   64  130 1    
   127   65   66 1    
   128   65   69 1    
   129   65  131 1    
   130   66   67 am   BACKBONE|DICT|INTERRES
   131   66   68 2    
   132   67  132 1    
   133   67  133 1    
   134   69   70 1    
   135   69  134 1    
   136   69  135 1    
   137   70   71 1    
   138   71  136 1    
   139   71  137 1    
@<TRIPOS>SUBSTRUCTURE
     1 UNK         1 GROUP             0       ****    0 ROOT    
