@<TRIPOS>MOLECULE
3R137
137   139    1
SMALL
USER_CHARGES


@<TRIPOS>ATOM
      1 CA         30.8544   -1.1565    1.7535 C.3       0 UNK        -0.2020 
      2 C          29.6726   -1.9370    2.3229 C.2       0 UNK         0.4855 
      3 O          29.6885   -2.2667    3.5076 O.2       0 UNK        -0.5197 
      4 N          28.6302   -2.2515    1.5463 N.am      1 UNK        -0.4892 
      5 CA         28.4113   -1.9485    0.1305 C.3       1 UNK         0.0835 
      6 C6         29.3671   -2.7068   -0.8349 C.3       12 UNK        -0.0855 
      7 S7         29.3286   -4.5235   -0.6594 S.3       12 UNK        -0.2931 
      8 C8         30.8617   -4.9791   -1.5291 C.3       12 UNK         0.0378 
      9 C9         30.8157   -4.6060   -3.0052 C.ar      12 UNK        -0.0802 
     10 C10        31.6896   -3.6449   -3.5222 C.ar      12 UNK        -0.0944 
     11 C11        31.6707   -3.3275   -4.8839 C.ar      12 UNK        -0.0787 
     12 C12        30.7599   -3.9706   -5.7284 C.ar      12 UNK        -0.0862 
     13 C13        29.8701   -4.9265   -5.2210 C.ar      12 UNK        -0.0733 
     14 C14        29.9108   -5.2415   -3.8597 C.ar      12 UNK        -0.0832 
     15 C15        28.8952   -5.6731   -6.1274 C.3       12 UNK         0.0240 
     16 S16        28.0881   -4.6285   -7.3817 S.3       12 UNK        -0.2522 
     17 C17        27.0132   -3.5593   -6.3654 C.3       12 UNK        -0.0967 
     18 CA         26.6288   -2.2801   -7.1498 C.3       5 UNK         0.0660 
     19 N          25.2977   -1.7722   -6.8106 N.am      5 UNK        -0.4015 
     20 C          24.6016   -0.9376   -7.5972 C.2       4 UNK         0.4946 
     21 O          25.0113   -0.5111   -8.6774 O.2       4 UNK        -0.5353 
     22 CA         23.2312   -0.4751   -7.0795 C.3       4 UNK         0.0277 
     23 CB         22.1760   -1.5787   -7.2587 C.3       4 UNK        -0.1981 
     24 N          23.2748   -0.0502   -5.6797 N.am      4 UNK        -0.4209 
     25 C          23.9537    1.0183   -5.2396 C.2       3 UNK         0.4942 
     26 O          24.5945    1.7754   -5.9690 O.2       3 UNK        -0.5208 
     27 CA         23.9439    1.2637   -3.7217 C.3       3 UNK         0.0250 
     28 CB         22.6829    2.0407   -3.3102 C.3       3 UNK        -0.1990 
     29 N          24.0654    0.0507   -2.9008 N.am      3 UNK        -0.4232 
     30 C          25.0673   -0.8352   -2.9838 C.2       2 UNK         0.4993 
     31 O          25.9359   -0.8199   -3.8584 O.2       2 UNK        -0.5286 
     32 CA         25.1453   -1.9172   -1.9083 C.3       2 UNK         0.0209 
     33 CB         24.8047   -3.3025   -2.4853 C.3       2 UNK        -0.1931 
     34 N          26.5210   -1.8984   -1.4257 N.am      2 UNK        -0.4546 
     35 C          26.9193   -2.1842   -0.1833 C.2       1 UNK         0.5154 
     36 O          26.1588   -2.5949    0.7000 O.2       1 UNK        -0.5181 
     37 C          27.7007   -1.1802   -7.0438 C.2       5 UNK         0.5014 
     38 O          28.5653   -1.1044   -7.9150 O.2       5 UNK        -0.5248 
     39 N          27.5915   -0.3120   -6.0270 N.am      6 UNK        -0.4434 
     40 CA         28.4405    0.8656   -5.8368 C.3       6 UNK         0.0363 
     41 CB         28.0711    1.5698   -4.5229 C.3       6 UNK        -0.1936 
     42 C          28.3875    1.8461   -7.0178 C.2       6 UNK         0.5081 
     43 O          29.4258    2.3967   -7.3851 O.2       6 UNK        -0.5248 
     44 N          27.1969    2.0181   -7.6079 N.am      7 UNK        -0.4718 
     45 CA         26.9941    2.7717   -8.8427 C.3       7 UNK         0.0273 
     46 CB         25.5024    3.1041   -9.0088 C.3       7 UNK        -0.1935 
     47 C          27.5354    2.0237  -10.0724 C.2       7 UNK         0.5018 
     48 O          28.2849    2.6164  -10.8482 O.2       7 UNK        -0.5186 
     49 N          27.1553    0.7459  -10.2304 N.am      8 UNK        -0.4240 
     50 CA         27.5011   -0.0894  -11.3871 C.3       8 UNK         0.0235 
     51 CB         26.7114   -1.4069  -11.3367 C.3       8 UNK        -0.2000 
     52 C          29.0059   -0.3700  -11.5332 C.2       8 UNK         0.4941 
     53 O          29.5351   -0.2507  -12.6390 O.2       8 UNK        -0.5273 
     54 N          29.6699   -0.7262  -10.4257 N.am      9 UNK        -0.4262 
     55 CA         31.1136   -0.9755  -10.3708 C.3       9 UNK         0.0264 
     56 CB         31.4135   -1.9435   -9.2131 C.3       9 UNK        -0.1955 
     57 C          31.9359    0.3159  -10.2146 C.2       9 UNK         0.5031 
     58 O          33.1591    0.2604  -10.3469 O.2       9 UNK        -0.5390 
     59 N          31.2638    1.4371   -9.9099 N.am      10 UNK        -0.4204 
     60 CA         31.8106    2.7714   -9.6341 C.3       10 UNK         0.0237 
     61 CB         32.5171    3.3506  -10.8786 C.3       10 UNK        -0.1985 
     62 C          32.6862    2.8400   -8.3648 C.2       10 UNK         0.4970 
     63 O          33.4620    3.7867   -8.2190 O.2       10 UNK        -0.4914 
     64 N          32.5430    1.8583   -7.4639 N.am      11 UNK        -0.4285 
     65 CA         33.2215    1.8107   -6.1620 C.3       11 UNK         0.1007 
     66 C          32.5568    2.6895   -5.0621 C.2       11 UNK         0.5703 
     67 N          31.3615    3.2306   -5.2718 N.am      11 UNK        -0.7361 
     68 O          33.1503    2.9035   -4.0076 O.2       11 UNK        -0.4986 
     69 C69        33.4833    0.3522   -5.6992 C.3       12 UNK        -0.0947 
     70 S70        31.9783   -0.6272   -5.3772 S.3       12 UNK        -0.2240 
     71 C71        32.6559   -2.3108   -5.4413 C.3       12 UNK         0.0194 
     72 H72        30.5564   -0.4389    0.9914 H         1 UNK         0.0906 
     73 H73        31.3493   -0.5959    2.5463 H         1 UNK         0.0906 
     74 H74        31.5860   -1.8409    1.3255 H         1 UNK         0.0906 
     75 H75        27.8358   -2.7342    1.9514 H         1 UNK         0.3140 
     76 H76        28.5618   -0.8762   -0.0070 H         1 UNK         0.1085 
     77 H77        29.1484   -2.4580   -1.8750 H         1 UNK         0.0836 
     78 H78        30.3919   -2.3709   -0.6813 H         1 UNK         0.0836 
     79 H79        31.7110   -4.5083   -1.0314 H         1 UNK         0.0731 
     80 H80        31.0128   -6.0556   -1.4378 H         1 UNK         0.0731 
     81 H81        32.3948   -3.1501   -2.8683 H         1 UNK         0.1312 
     82 H82        30.7486   -3.7294   -6.7824 H         1 UNK         0.1406 
     83 H83        29.2398   -5.9888   -3.4573 H         1 UNK         0.1631 
     84 H84        28.1184   -6.1650   -5.5396 H         1 UNK         0.0717 
     85 H85        29.4424   -6.4657   -6.6391 H         1 UNK         0.0717 
     86 H86        26.1232   -4.1415   -6.1214 H         1 UNK         0.0934 
     87 H87        27.4914   -3.3226   -5.4122 H         1 UNK         0.0934 
     88 H88        26.5709   -2.5513   -8.2060 H         1 UNK         0.0739 
     89 H89        24.9270   -2.0196   -5.9052 H         1 UNK         0.3093 
     90 H90        22.9271    0.3852   -7.6802 H         1 UNK         0.0818 
     91 H91        21.1826   -1.2253   -6.9817 H         1 UNK         0.0819 
     92 H92        22.1237   -1.9009   -8.2998 H         1 UNK         0.0819 
     93 H93        22.3990   -2.4598   -6.6559 H         1 UNK         0.0819 
     94 H94        22.7750   -0.6130   -5.0069 H         1 UNK         0.3041 
     95 H95        24.8100    1.8885   -3.4947 H         1 UNK         0.0784 
     96 H96        22.5794    2.9554   -3.8960 H         1 UNK         0.0793 
     97 H97        21.7767    1.4528   -3.4614 H         1 UNK         0.0793 
     98 H98        22.7218    2.3350   -2.2611 H         1 UNK         0.0793 
     99 H99        23.3896   -0.0513   -2.1569 H         1 UNK         0.3024 
    100 H100       24.4587   -1.6768   -1.0930 H         1 UNK         0.1171 
    101 H101       23.7855   -3.3257   -2.8729 H         1 UNK         0.0786 
    102 H102       24.8793   -4.0766   -1.7212 H         1 UNK         0.0786 
    103 H103       25.4745   -3.5763   -3.3017 H         1 UNK         0.0786 
    104 H104       27.1839   -1.5427   -2.1030 H         1 UNK         0.2977 
    105 H105       26.8753   -0.4708   -5.3179 H         1 UNK         0.3127 
    106 H106       29.4672    0.5145   -5.7562 H         1 UNK         0.0770 
    107 H107       27.0394    1.9208   -4.5323 H         1 UNK         0.0814 
    108 H108       28.7095    2.4365   -4.3501 H         1 UNK         0.0814 
    109 H109       28.1921    0.9033   -3.6690 H         1 UNK         0.0814 
    110 H110       26.3817    1.5727   -7.2015 H         1 UNK         0.2983 
    111 H111       27.5412    3.7137   -8.7606 H         1 UNK         0.0947 
    112 H112       25.3281    3.6747   -9.9220 H         1 UNK         0.0806 
    113 H113       25.1376    3.7049   -8.1755 H         1 UNK         0.0806 
    114 H114       24.8877    2.2049   -9.0617 H         1 UNK         0.0806 
    115 H115       26.5134    0.3389   -9.5540 H         1 UNK         0.3000 
    116 H116       27.1853    0.4539  -12.2803 H         1 UNK         0.0850 
    117 H117       26.9219   -2.0226  -12.2122 H         1 UNK         0.0810 
    118 H118       25.6365   -1.2257  -11.3191 H         1 UNK         0.0810 
    119 H119       26.9668   -1.9954  -10.4557 H         1 UNK         0.0810 
    120 H120       29.1619   -0.8238   -9.5440 H         1 UNK         0.3040 
    121 H121       31.4272   -1.4539  -11.3011 H         1 UNK         0.0766 
    122 H122       32.4701   -2.2136   -9.1917 H         1 UNK         0.0812 
    123 H123       31.1721   -1.5018   -8.2460 H         1 UNK         0.0812 
    124 H124       30.8431   -2.8676   -9.3092 H         1 UNK         0.0812 
    125 H125       30.2583    1.3653   -9.8268 H         1 UNK         0.3205 
    126 H126       30.9462    3.4048   -9.4297 H         1 UNK         0.0754 
    127 H127       32.7767    4.3994  -10.7296 H         1 UNK         0.0769 
    128 H128       31.8737    3.3003  -11.7572 H         1 UNK         0.0769 
    129 H129       33.4405    2.8175  -11.1065 H         1 UNK         0.0769 
    130 H130       31.8485    1.1456   -7.6293 H         1 UNK         0.2981 
    131 H131       34.2096    2.2522   -6.3046 H         1 UNK         0.0541 
    132 H132       30.8464    3.0351   -6.1232 H         1 UNK         0.3459 
    133 H133       30.9560    3.8134   -4.5581 H         1 UNK         0.3459 
    134 H134       34.0944    0.3458   -4.7949 H         1 UNK         0.0612 
    135 H135       34.0736   -0.1632   -6.4587 H         1 UNK         0.0612 
    136 H136       32.9142   -2.5567   -6.4723 H         1 UNK         0.0624 
    137 H137       33.5861   -2.3480   -4.8722 H         1 UNK         0.0624 
@<TRIPOS>BOND
     1    1    2 1    
     2    1   72 1    
     3    1   73 1    
     4    1   74 1    
     5    2    3 2    
     6    2    4 am   BACKBONE|DICT|INTERRES
     7    4    5 1    
     8    4   75 1    
     9    5    6 1    
    10    5   35 1    
    11    5   76 1    
    12    6    7 1    
    13    6   77 1    
    14    6   78 1    
    15    7    8 1    
    16    8    9 1    
    17    8   79 1    
    18    8   80 1    
    19    9   10 ar   
    20    9   14 ar   
    21   10   11 ar   
    22   10   81 1    
    23   11   12 ar   
    24   11   71 1    
    25   12   13 ar   
    26   12   82 1    
    27   13   14 ar   
    28   13   15 1    
    29   14   83 1    
    30   15   16 1    
    31   15   84 1    
    32   15   85 1    
    33   16   17 1    
    34   17   18 1    
    35   17   86 1    
    36   17   87 1    
    37   18   19 1    
    38   18   37 1    
    39   18   88 1    
    40   19   20 am   BACKBONE|DICT|INTERRES
    41   19   89 1    
    42   20   21 2    
    43   20   22 1    
    44   22   23 1    
    45   22   24 1    
    46   22   90 1    
    47   23   91 1    
    48   23   92 1    
    49   23   93 1    
    50   24   25 am   BACKBONE|DICT|INTERRES
    51   24   94 1    
    52   25   26 2    
    53   25   27 1    
    54   27   28 1    
    55   27   29 1    
    56   27   95 1    
    57   28   96 1    
    58   28   97 1    
    59   28   98 1    
    60   29   30 am   BACKBONE|DICT|INTERRES
    61   29   99 1    
    62   30   31 2    
    63   30   32 1    
    64   32   33 1    
    65   32   34 1    
    66   32  100 1    
    67   33  101 1    
    68   33  102 1    
    69   33  103 1    
    70   34   35 am   BACKBONE|DICT|INTERRES
    71   34  104 1    
    72   35   36 2    
    73   37   38 2    
    74   37   39 am   BACKBONE|DICT|INTERRES
    75   39   40 1    
    76   39  105 1    
    77   40   41 1    
    78   40   42 1    
    79   40  106 1    
    80   41  107 1    
    81   41  108 1    
    82   41  109 1    
    83   42   43 2    
    84   42   44 am   BACKBONE|DICT|INTERRES
    85   44   45 1    
    86   44  110 1    
    87   45   46 1    
    88   45   47 1    
    89   45  111 1    
    90   46  112 1    
    91   46  113 1    
    92   46  114 1    
    93   47   48 2    
    94   47   49 am   BACKBONE|DICT|INTERRES
    95   49   50 1    
    96   49  115 1    
    97   50   51 1    
    98   50   52 1    
    99   50  116 1    
   100   51  117 1    
   101   51  118 1    
   102   51  119 1    
   103   52   53 2    
   104   52   54 am   BACKBONE|DICT|INTERRES
   105   54   55 1    
   106   54  120 1    
   107   55   56 1    
   108   55   57 1    
   109   55  121 1    
   110   56  122 1    
   111   56  123 1    
   112   56  124 1    
   113   57   58 2    
   114   57   59 am   BACKBONE|DICT|INTERRES
   115   59   60 1    
   116   59  125 1    
   117   60   61 1    
   118   60   62 1    
   119   60  126 1    
   120   61  127 1    
   121   61  128 1    
   122   61  129 1    
   123   62   63 2    
   124   62   64 am   BACKBONE|DICT|INTERRES
   125   64   65 1    
   126   64  130 1    
   127   65   66 1    
   128   65   69 1    
   129   65  131 1    
   130   66   67 am   BACKBONE|DICT|INTERRES
   131   66   68 2    
   132   67  132 1    
   133   67  133 1    
   134   69   70 1    
   135   69  134 1    
   136   69  135 1    
   137   70   71 1    
   138   71  136 1    
   139   71  137 1    
@<TRIPOS>SUBSTRUCTURE
     1 UNK         1 GROUP             0       ****    0 ROOT    
