@<TRIPOS>MOLECULE
3R137
137   139    1
SMALL
USER_CHARGES


@<TRIPOS>ATOM
      1 CA         28.6538   -3.6508   -5.2406 C.3       0 UNK        -0.2020 
      2 C          27.8533   -4.4370   -4.2171 C.2       0 UNK         0.4855 
      3 O          26.7890   -4.9653   -4.5420 O.2       0 UNK        -0.5197 
      4 N          28.3537   -4.5206   -2.9754 N.am      1 UNK        -0.4892 
      5 CA         27.7533   -5.3178   -1.8961 C.3       1 UNK         0.0835 
      6 C6         28.7398   -5.5589   -0.7217 C.3       12 UNK        -0.0855 
      7 S7         28.9399   -4.1806    0.4652 S.3       12 UNK        -0.2931 
      8 C8         30.5711   -3.4980    0.0317 C.3       12 UNK         0.0378 
      9 C9         30.4944   -2.5195   -1.1316 C.ar      12 UNK        -0.0802 
     10 C10        31.2146   -2.7536   -2.3062 C.ar      12 UNK        -0.0944 
     11 C11        31.1812   -1.8326   -3.3592 C.ar      12 UNK        -0.0787 
     12 C12        30.3991   -0.6767   -3.2331 C.ar      12 UNK        -0.0862 
     13 C13        29.6868   -0.4236   -2.0554 C.ar      12 UNK        -0.0733 
     14 C14        29.7382   -1.3499   -1.0112 C.ar      12 UNK        -0.0832 
     15 C15        28.8977    0.8666   -1.8808 C.3       12 UNK         0.0240 
     16 S16        27.1214    0.6222   -2.2020 S.3       12 UNK        -0.2522 
     17 C17        26.8185    1.8610   -3.5057 C.3       12 UNK        -0.0967 
     18 CA         27.2100    1.3469   -4.9198 C.3       5 UNK         0.0660 
     19 N          26.1475    0.5811   -5.5690 N.am      5 UNK        -0.4015 
     20 C          25.9136   -0.7215   -5.4026 C.2       4 UNK         0.4946 
     21 O          26.5365   -1.4390   -4.6166 O.2       4 UNK        -0.5353 
     22 CA         24.8238   -1.3490   -6.2805 C.3       4 UNK         0.0277 
     23 CB         25.3513   -1.6528   -7.6928 C.3       4 UNK        -0.1981 
     24 N          24.4428   -2.5892   -5.6239 N.am      4 UNK        -0.4209 
     25 C          23.2183   -3.1134   -5.5270 C.2       3 UNK         0.4942 
     26 O          22.2445   -2.7277   -6.1745 O.2       3 UNK        -0.5208 
     27 CA         23.0540   -4.2293   -4.4795 C.3       3 UNK         0.0250 
     28 CB         23.3349   -5.6081   -5.0973 C.3       3 UNK        -0.1990 
     29 N          23.9472   -4.0073   -3.3359 N.am      3 UNK        -0.4232 
     30 C          23.7326   -3.0852   -2.3835 C.2       2 UNK         0.4993 
     31 O          22.6746   -2.4628   -2.2789 O.2       2 UNK        -0.5286 
     32 CA         24.8866   -2.7429   -1.4195 C.3       2 UNK         0.0209 
     33 CB         24.4535   -2.8146    0.0599 C.3       2 UNK        -0.1931 
     34 N          26.1266   -3.4916   -1.6574 N.am      2 UNK        -0.4546 
     35 C          26.3721   -4.7935   -1.4414 C.2       1 UNK         0.5154 
     36 O          25.5580   -5.5806   -0.9571 O.2       1 UNK        -0.5181 
     37 C          27.5736    2.5044   -5.8634 C.2       5 UNK         0.5014 
     38 O          26.8247    2.7895   -6.8037 O.2       5 UNK        -0.5248 
     39 N          28.7188    3.1484   -5.5938 N.am      6 UNK        -0.4434 
     40 CA         29.2783    4.2845   -6.3356 C.3       6 UNK         0.0363 
     41 CB         28.4217    5.5519   -6.1082 C.3       6 UNK        -0.1936 
     42 C          29.5113    3.9348   -7.8183 C.2       6 UNK         0.5081 
     43 O          30.0076    2.8433   -8.1039 O.2       6 UNK        -0.5248 
     44 N          29.1368    4.8351   -8.7363 N.am      7 UNK        -0.4718 
     45 CA         29.2901    4.6813  -10.1871 C.3       7 UNK         0.0273 
     46 CB         28.8985    5.9989  -10.8754 C.3       7 UNK        -0.1935 
     47 C          28.5070    3.5034  -10.7975 C.2       7 UNK         0.5018 
     48 O          28.8891    3.0317  -11.8686 O.2       7 UNK        -0.5186 
     49 N          27.4459    3.0396  -10.1189 N.am      8 UNK        -0.4240 
     50 CA         26.6844    1.8522  -10.5160 C.3       8 UNK         0.0235 
     51 CB         25.3119    1.8528   -9.8236 C.3       8 UNK        -0.2000 
     52 C          27.4443    0.5456  -10.2283 C.2       8 UNK         0.4941 
     53 O          27.2784   -0.4180  -10.9765 O.2       8 UNK        -0.5273 
     54 N          28.2619    0.5351   -9.1651 N.am      9 UNK        -0.4262 
     55 CA         29.1619   -0.5715   -8.8355 C.3       9 UNK         0.0264 
     56 CB         29.3978   -0.6236   -7.3183 C.3       9 UNK        -0.1955 
     57 C          30.4977   -0.4435   -9.5820 C.2       9 UNK         0.5031 
     58 O          30.9977   -1.4426  -10.0993 O.2       9 UNK        -0.5390 
     59 N          31.0461    0.7816   -9.6098 N.am      10 UNK        -0.4204 
     60 CA         32.3141    1.1877  -10.2281 C.3       10 UNK         0.0237 
     61 CB         32.2487    1.0406  -11.7632 C.3       10 UNK        -0.1985 
     62 C          33.5552    0.5090   -9.6106 C.2       10 UNK         0.4970 
     63 O          34.5752    0.3737  -10.2888 O.2       10 UNK        -0.4914 
     64 N          33.4568    0.1069   -8.3361 N.am      11 UNK        -0.4285 
     65 CA         34.5340   -0.5419   -7.5728 C.3       11 UNK         0.1007 
     66 C          35.6233    0.4233   -7.0181 C.2       11 UNK         0.5703 
     67 N          35.4623    1.7380   -7.1163 N.am      11 UNK        -0.7361 
     68 O          36.6436   -0.0314   -6.5057 O.2       11 UNK        -0.4986 
     69 C69        33.9690   -1.4968   -6.4879 C.3       12 UNK        -0.0947 
     70 S70        32.9438   -0.6821   -5.2153 S.3       12 UNK        -0.2240 
     71 C71        31.9831   -2.1145   -4.6273 C.3       12 UNK         0.0194 
     72 H72        29.5713   -4.1794   -5.4956 H         1 UNK         0.0906 
     73 H73        28.0751   -3.5087   -6.1530 H         1 UNK         0.0906 
     74 H74        28.9056   -2.6656   -4.8516 H         1 UNK         0.0906 
     75 H75        29.2007   -4.0210   -2.7386 H         1 UNK         0.3140 
     76 H76        27.5547   -6.3002   -2.3321 H         1 UNK         0.1085 
     77 H77        29.7150   -5.8592   -1.1078 H         1 UNK         0.0836 
     78 H78        28.3913   -6.4167   -0.1436 H         1 UNK         0.0836 
     79 H79        31.2716   -4.3092   -0.1725 H         1 UNK         0.0731 
     80 H80        30.9666   -2.9701    0.9006 H         1 UNK         0.0731 
     81 H81        31.8155   -3.6489   -2.3951 H         1 UNK         0.1312 
     82 H82        30.3655    0.0361   -4.0447 H         1 UNK         0.1406 
     83 H83        29.1924   -1.1576   -0.0971 H         1 UNK         0.1631 
     84 H84        29.3061    1.6408   -2.5310 H         1 UNK         0.0717 
     85 H85        29.0206    1.2383   -0.8624 H         1 UNK         0.0717 
     86 H86        25.7636    2.1399   -3.4813 H         1 UNK         0.0934 
     87 H87        27.3590    2.7684   -3.2290 H         1 UNK         0.0934 
     88 H88        28.0981    0.7161   -4.8487 H         1 UNK         0.0739 
     89 H89        25.6475    1.1099   -6.2731 H         1 UNK         0.3093 
     90 H90        23.9686   -0.6716   -6.3301 H         1 UNK         0.0818 
     91 H91        25.6344   -0.7368   -8.2097 H         1 UNK         0.0819 
     92 H92        26.2305   -2.2979   -7.6659 H         1 UNK         0.0819 
     93 H93        24.5930   -2.1463   -8.3008 H         1 UNK         0.0819 
     94 H94        25.1742   -2.9492   -5.0201 H         1 UNK         0.3041 
     95 H95        22.0198   -4.2153   -4.1286 H         1 UNK         0.0784 
     96 H96        22.6532   -5.8086   -5.9250 H         1 UNK         0.0793 
     97 H97        24.3506   -5.6792   -5.4881 H         1 UNK         0.0793 
     98 H98        23.2006   -6.4052   -4.3658 H         1 UNK         0.0793 
     99 H99        24.8467   -4.4711   -3.3656 H         1 UNK         0.3024 
    100 H100       25.1368   -1.7023   -1.6333 H         1 UNK         0.1171 
    101 H101       24.1036   -3.8095    0.3358 H         1 UNK         0.0786 
    102 H102       25.2743   -2.5488    0.7262 H         1 UNK         0.0786 
    103 H103       23.6369   -2.1201    0.2604 H         1 UNK         0.0786 
    104 H104       26.8670   -2.9603   -2.0984 H         1 UNK         0.2977 
    105 H105       29.2895    2.8167   -4.8296 H         1 UNK         0.3127 
    106 H106       30.2670    4.4721   -5.9141 H         1 UNK         0.0770 
    107 H107       28.9012    6.4382   -6.5253 H         1 UNK         0.0814 
    108 H108       28.2840    5.7430   -5.0439 H         1 UNK         0.0814 
    109 H109       27.4304    5.4645   -6.5552 H         1 UNK         0.0814 
    110 H110       28.7200    5.6973   -8.4154 H         1 UNK         0.2983 
    111 H111       30.3476    4.4930  -10.3859 H         1 UNK         0.0947 
    112 H112       29.0303    5.9296  -11.9563 H         1 UNK         0.0806 
    113 H113       29.5168    6.8277  -10.5298 H         1 UNK         0.0806 
    114 H114       27.8548    6.2564  -10.6907 H         1 UNK         0.0806 
    115 H115       27.2017    3.4723   -9.2377 H         1 UNK         0.3000 
    116 H116       26.5136    1.9005  -11.5940 H         1 UNK         0.0850 
    117 H117       24.7466    2.7531  -10.0646 H         1 UNK         0.0810 
    118 H118       25.4008    1.7932   -8.7397 H         1 UNK         0.0810 
    119 H119       24.7139    0.9997  -10.1472 H         1 UNK         0.0810 
    120 H120       28.3669    1.3876   -8.6300 H         1 UNK         0.3040 
    121 H121       28.7002   -1.5159   -9.1330 H         1 UNK         0.0766 
    122 H122       30.0978   -1.4202   -7.0694 H         1 UNK         0.0812 
    123 H123       28.4733   -0.8341   -6.7847 H         1 UNK         0.0812 
    124 H124       29.8109    0.3082   -6.9308 H         1 UNK         0.0812 
    125 H125       30.5715    1.5256   -9.0948 H         1 UNK         0.3205 
    126 H126       32.4201    2.2510  -10.0085 H         1 UNK         0.0754 
    127 H127       33.1239    1.4848  -12.2388 H         1 UNK         0.0769 
    128 H128       31.3711    1.5427  -12.1709 H         1 UNK         0.0769 
    129 H129       32.2085   -0.0055  -12.0683 H         1 UNK         0.0769 
    130 H130       32.5976    0.2717   -7.8342 H         1 UNK         0.2981 
    131 H131       35.0727   -1.1816   -8.2746 H         1 UNK         0.0541 
    132 H132       34.6304    2.1216   -7.5334 H         1 UNK         0.3459 
    133 H133       36.1787    2.3505   -6.7597 H         1 UNK         0.3459 
    134 H134       34.7787   -2.0311   -5.9875 H         1 UNK         0.0612 
    135 H135       33.3670   -2.2659   -6.9747 H         1 UNK         0.0612 
    136 H136       32.6768   -2.9391   -4.4553 H         1 UNK         0.0624 
    137 H137       31.3095   -2.4415   -5.4168 H         1 UNK         0.0624 
@<TRIPOS>BOND
     1    1    2 1    
     2    1   72 1    
     3    1   73 1    
     4    1   74 1    
     5    2    3 2    
     6    2    4 am   BACKBONE|DICT|INTERRES
     7    4    5 1    
     8    4   75 1    
     9    5    6 1    
    10    5   35 1    
    11    5   76 1    
    12    6    7 1    
    13    6   77 1    
    14    6   78 1    
    15    7    8 1    
    16    8    9 1    
    17    8   79 1    
    18    8   80 1    
    19    9   10 ar   
    20    9   14 ar   
    21   10   11 ar   
    22   10   81 1    
    23   11   12 ar   
    24   11   71 1    
    25   12   13 ar   
    26   12   82 1    
    27   13   14 ar   
    28   13   15 1    
    29   14   83 1    
    30   15   16 1    
    31   15   84 1    
    32   15   85 1    
    33   16   17 1    
    34   17   18 1    
    35   17   86 1    
    36   17   87 1    
    37   18   19 1    
    38   18   37 1    
    39   18   88 1    
    40   19   20 am   BACKBONE|DICT|INTERRES
    41   19   89 1    
    42   20   21 2    
    43   20   22 1    
    44   22   23 1    
    45   22   24 1    
    46   22   90 1    
    47   23   91 1    
    48   23   92 1    
    49   23   93 1    
    50   24   25 am   BACKBONE|DICT|INTERRES
    51   24   94 1    
    52   25   26 2    
    53   25   27 1    
    54   27   28 1    
    55   27   29 1    
    56   27   95 1    
    57   28   96 1    
    58   28   97 1    
    59   28   98 1    
    60   29   30 am   BACKBONE|DICT|INTERRES
    61   29   99 1    
    62   30   31 2    
    63   30   32 1    
    64   32   33 1    
    65   32   34 1    
    66   32  100 1    
    67   33  101 1    
    68   33  102 1    
    69   33  103 1    
    70   34   35 am   BACKBONE|DICT|INTERRES
    71   34  104 1    
    72   35   36 2    
    73   37   38 2    
    74   37   39 am   BACKBONE|DICT|INTERRES
    75   39   40 1    
    76   39  105 1    
    77   40   41 1    
    78   40   42 1    
    79   40  106 1    
    80   41  107 1    
    81   41  108 1    
    82   41  109 1    
    83   42   43 2    
    84   42   44 am   BACKBONE|DICT|INTERRES
    85   44   45 1    
    86   44  110 1    
    87   45   46 1    
    88   45   47 1    
    89   45  111 1    
    90   46  112 1    
    91   46  113 1    
    92   46  114 1    
    93   47   48 2    
    94   47   49 am   BACKBONE|DICT|INTERRES
    95   49   50 1    
    96   49  115 1    
    97   50   51 1    
    98   50   52 1    
    99   50  116 1    
   100   51  117 1    
   101   51  118 1    
   102   51  119 1    
   103   52   53 2    
   104   52   54 am   BACKBONE|DICT|INTERRES
   105   54   55 1    
   106   54  120 1    
   107   55   56 1    
   108   55   57 1    
   109   55  121 1    
   110   56  122 1    
   111   56  123 1    
   112   56  124 1    
   113   57   58 2    
   114   57   59 am   BACKBONE|DICT|INTERRES
   115   59   60 1    
   116   59  125 1    
   117   60   61 1    
   118   60   62 1    
   119   60  126 1    
   120   61  127 1    
   121   61  128 1    
   122   61  129 1    
   123   62   63 2    
   124   62   64 am   BACKBONE|DICT|INTERRES
   125   64   65 1    
   126   64  130 1    
   127   65   66 1    
   128   65   69 1    
   129   65  131 1    
   130   66   67 am   BACKBONE|DICT|INTERRES
   131   66   68 2    
   132   67  132 1    
   133   67  133 1    
   134   69   70 1    
   135   69  134 1    
   136   69  135 1    
   137   70   71 1    
   138   71  136 1    
   139   71  137 1    
@<TRIPOS>SUBSTRUCTURE
     1 UNK         1 GROUP             0       ****    0 ROOT    
