@<TRIPOS>MOLECULE
3R137
137   139    1
SMALL
USER_CHARGES


@<TRIPOS>ATOM
      1 CA         27.0933   -8.5740   -0.7313 C.3       0 UNK        -0.2020 
      2 C          26.6907   -7.1412   -0.4163 C.2       0 UNK         0.4855 
      3 O          26.0100   -6.9014    0.5812 O.2       0 UNK        -0.5197 
      4 N          27.1054   -6.1862   -1.2593 N.am      1 UNK        -0.4892 
      5 CA         26.8324   -4.7495   -1.1013 C.3       1 UNK         0.0835 
      6 C6         27.7162   -3.8810   -2.0332 C.3       12 UNK        -0.0855 
      7 S7         29.5005   -4.2379   -1.9115 S.3       12 UNK        -0.2931 
      8 C8         30.1175   -3.3485   -3.3785 C.3       12 UNK         0.0378 
      9 C9         30.7963   -2.0363   -3.0110 C.ar      12 UNK        -0.0802 
     10 C10        32.1667   -1.8742   -3.2310 C.ar      12 UNK        -0.0944 
     11 C11        32.8032   -0.6706   -2.9131 C.ar      12 UNK        -0.0787 
     12 C12        32.0563    0.3765   -2.3649 C.ar      12 UNK        -0.0862 
     13 C13        30.6870    0.2249   -2.1236 C.ar      12 UNK        -0.0733 
     14 C14        30.0630   -0.9832   -2.4557 C.ar      12 UNK        -0.0832 
     15 C15        29.9076    1.3486   -1.4467 C.3       12 UNK         0.0240 
     16 S16        28.3174    1.7260   -2.2524 S.3       12 UNK        -0.2522 
     17 C17        28.8593    2.3727   -3.8700 C.3       12 UNK        -0.0967 
     18 CA         28.6584    1.3430   -5.0201 C.3       5 UNK         0.0660 
     19 N          27.2770    0.8532   -5.0929 N.am      5 UNK        -0.4015 
     20 C          26.2080    1.5237   -5.5376 C.2       4 UNK         0.4946 
     21 O          26.2812    2.6262   -6.0841 O.2       4 UNK        -0.5353 
     22 CA         24.8269    0.8648   -5.3248 C.3       4 UNK         0.0277 
     23 CB         23.7029    1.6284   -6.0524 C.3       4 UNK        -0.1981 
     24 N          24.7563   -0.5494   -5.7120 N.am      4 UNK        -0.4209 
     25 C          25.3074   -1.5829   -5.0640 C.2       3 UNK         0.4942 
     26 O          26.0347   -1.4689   -4.0744 O.2       3 UNK        -0.5208 
     27 CA         25.0370   -2.9788   -5.6459 C.3       3 UNK         0.0250 
     28 CB         26.2900   -3.5144   -6.3598 C.3       3 UNK        -0.1990 
     29 N          24.6538   -3.9145   -4.5905 N.am      3 UNK        -0.4232 
     30 C          23.4918   -3.8974   -3.9196 C.2       2 UNK         0.4993 
     31 O          22.5537   -3.1472   -4.1915 O.2       2 UNK        -0.5286 
     32 CA         23.3565   -4.8834   -2.7430 C.3       2 UNK         0.0209 
     33 CB         22.6619   -6.1778   -3.1966 C.3       2 UNK        -0.1931 
     34 N          24.6580   -5.2119   -2.1539 N.am      2 UNK        -0.4546 
     35 C          25.3536   -4.3875   -1.3561 C.2       1 UNK         0.5154 
     36 O          24.8897   -3.3531   -0.8744 O.2       1 UNK        -0.5181 
     37 C          29.1554    1.8396   -6.3976 C.2       5 UNK         0.5014 
     38 O          29.1150    1.0752   -7.3647 O.2       5 UNK        -0.5248 
     39 N          29.5955    3.1029   -6.4792 N.am      6 UNK        -0.4434 
     40 CA         30.0775    3.7469   -7.7009 C.3       6 UNK         0.0363 
     41 CB         30.8000    5.0529   -7.3359 C.3       6 UNK        -0.1936 
     42 C          28.9828    4.0089   -8.7493 C.2       6 UNK         0.5081 
     43 O          29.3096    4.0759   -9.9334 O.2       6 UNK        -0.5248 
     44 N          27.7112    4.1183   -8.3324 N.am      7 UNK        -0.4718 
     45 CA         26.5734    4.2792   -9.2480 C.3       7 UNK         0.0273 
     46 CB         25.3467    4.8034   -8.4842 C.3       7 UNK        -0.1935 
     47 C          26.2419    2.9754   -9.9940 C.2       7 UNK         0.5018 
     48 O          25.7945    3.0296  -11.1396 O.2       7 UNK        -0.5186 
     49 N          26.5087    1.8332   -9.3465 N.am      8 UNK        -0.4240 
     50 CA         26.4497    0.4970   -9.9451 C.3       8 UNK         0.0235 
     51 CB         26.0446   -0.5095   -8.8584 C.3       8 UNK        -0.2000 
     52 C          27.7808    0.0779  -10.5991 C.2       8 UNK         0.4941 
     53 O          27.8308   -0.9876  -11.2143 O.2       8 UNK        -0.5273 
     54 N          28.8289    0.9008  -10.4391 N.am      9 UNK        -0.4262 
     55 CA         30.2162    0.6891  -10.8645 C.3       9 UNK         0.0264 
     56 CB         30.3260    0.6689  -12.4041 C.3       9 UNK        -0.1955 
     57 C          30.8778   -0.5314  -10.1927 C.2       9 UNK         0.5031 
     58 O          31.6994   -1.2039  -10.8194 O.2       9 UNK        -0.5390 
     59 N          30.5264   -0.7907   -8.9237 N.am      10 UNK        -0.4204 
     60 CA         31.1243   -1.8469   -8.1004 C.3       10 UNK         0.0237 
     61 CB         30.2275   -2.1238   -6.8829 C.3       10 UNK        -0.1985 
     62 C          32.5545   -1.4940   -7.6553 C.2       10 UNK         0.4970 
     63 O          33.3920   -2.3902   -7.5501 O.2       10 UNK        -0.4914 
     64 N          32.8004   -0.1972   -7.4417 N.am      11 UNK        -0.4285 
     65 CA         34.1042    0.4210   -7.1829 C.3       11 UNK         0.1007 
     66 C          34.2282    1.7335   -8.0007 C.2       11 UNK         0.5703 
     67 N          35.4351    2.2642   -8.1407 N.am      11 UNK        -0.7361 
     68 O          33.2477    2.2805   -8.5036 O.2       11 UNK        -0.4986 
     69 C69        34.3464    0.6625   -5.6669 C.3       12 UNK        -0.0947 
     70 S70        34.8465   -0.8627   -4.8076 S.3       12 UNK        -0.2240 
     71 C71        34.3078   -0.5235   -3.1027 C.3       12 UNK         0.0194 
     72 H72        27.6749   -8.9893    0.0913 H         1 UNK         0.0906 
     73 H73        26.2061   -9.1919   -0.8672 H         1 UNK         0.0906 
     74 H74        27.6946   -8.6396   -1.6379 H         1 UNK         0.0906 
     75 H75        27.6998   -6.4323   -2.0388 H         1 UNK         0.3140 
     76 H76        27.0566   -4.4782   -0.0671 H         1 UNK         0.1085 
     77 H77        27.5624   -2.8229   -1.8140 H         1 UNK         0.0836 
     78 H78        27.4135   -4.0197   -3.0730 H         1 UNK         0.0836 
     79 H79        30.8144   -4.0034   -3.9037 H         1 UNK         0.0731 
     80 H80        29.3077   -3.1486   -4.0813 H         1 UNK         0.0731 
     81 H81        32.7457   -2.6870   -3.6482 H         1 UNK         0.1312 
     82 H82        32.5489    1.3014   -2.0972 H         1 UNK         0.1406 
     83 H83        29.0055   -1.1059   -2.2702 H         1 UNK         0.1631 
     84 H84        30.5015    2.2627   -1.3982 H         1 UNK         0.0717 
     85 H85        29.7112    1.0569   -0.4143 H         1 UNK         0.0717 
     86 H86        28.2863    3.2824   -4.0601 H         1 UNK         0.0934 
     87 H87        29.9067    2.6714   -3.7929 H         1 UNK         0.0934 
     88 H88        29.2717    0.4716   -4.7914 H         1 UNK         0.0739 
     89 H89        27.0977   -0.0471   -4.6550 H         1 UNK         0.3093 
     90 H90        24.6243    0.9239   -4.2533 H         1 UNK         0.0818 
     91 H91        22.7255    1.1913   -5.8474 H         1 UNK         0.0819 
     92 H92        23.6608    2.6688   -5.7267 H         1 UNK         0.0819 
     93 H93        23.8519    1.6324   -7.1330 H         1 UNK         0.0819 
     94 H94        24.1880   -0.7504   -6.5215 H         1 UNK         0.3041 
     95 H95        24.2193   -2.9213   -6.3678 H         1 UNK         0.0784 
     96 H96        26.5901   -2.8562   -7.1747 H         1 UNK         0.0793 
     97 H97        27.1403   -3.5962   -5.6813 H         1 UNK         0.0793 
     98 H98        26.1103   -4.4988   -6.7925 H         1 UNK         0.0793 
     99 H99        25.3655   -4.5587   -4.2841 H         1 UNK         0.3024 
    100 H100       22.7345   -4.4056   -1.9821 H         1 UNK         0.1171 
    101 H101       21.6784   -5.9644   -3.6178 H         1 UNK         0.0786 
    102 H102       22.5132   -6.8615   -2.3605 H         1 UNK         0.0786 
    103 H103       23.2372   -6.7013   -3.9613 H         1 UNK         0.0786 
    104 H104       25.1050   -6.0637   -2.4617 H         1 UNK         0.2977 
    105 H105       29.5730    3.6784   -5.6505 H         1 UNK         0.3127 
    106 H106       30.8026    3.0763   -8.1641 H         1 UNK         0.0770 
    107 H107       30.1324    5.7627   -6.8460 H         1 UNK         0.0814 
    108 H108       31.1966    5.5401   -8.2279 H         1 UNK         0.0814 
    109 H109       31.6441    4.8663   -6.6716 H         1 UNK         0.0814 
    110 H110       27.4916    3.9845   -7.3516 H         1 UNK         0.2983 
    111 H111       26.8425    5.0262   -9.9986 H         1 UNK         0.0947 
    112 H112       24.5265    5.0162   -9.1711 H         1 UNK         0.0806 
    113 H113       25.5730    5.7285   -7.9541 H         1 UNK         0.0806 
    114 H114       24.9765    4.0811   -7.7573 H         1 UNK         0.0806 
    115 H115       26.8657    1.8962   -8.4014 H         1 UNK         0.3000 
    116 H116       25.6870    0.4796  -10.7266 H         1 UNK         0.0850 
    117 H117       26.0018   -1.5240   -9.2571 H         1 UNK         0.0810 
    118 H118       26.7518   -0.5109   -8.0278 H         1 UNK         0.0810 
    119 H119       25.0549   -0.2768   -8.4690 H         1 UNK         0.0810 
    120 H120       28.6683    1.7516   -9.9184 H         1 UNK         0.3040 
    121 H121       30.7729    1.5583  -10.5102 H         1 UNK         0.0766 
    122 H122       29.8646    1.5522  -12.8455 H         1 UNK         0.0812 
    123 H123       29.8469   -0.2115  -12.8334 H         1 UNK         0.0812 
    124 H124       31.3694    0.6574  -12.7214 H         1 UNK         0.0812 
    125 H125       29.8666   -0.1661   -8.4602 H         1 UNK         0.3205 
    126 H126       31.1744   -2.7586   -8.6996 H         1 UNK         0.0754 
    127 H127       30.6072   -2.9730   -6.3141 H         1 UNK         0.0769 
    128 H128       29.2077   -2.3630   -7.1843 H         1 UNK         0.0769 
    129 H129       30.1875   -1.2708   -6.2057 H         1 UNK         0.0769 
    130 H130       32.0606    0.4672   -7.6198 H         1 UNK         0.2981 
    131 H131       34.8835   -0.2385   -7.5705 H         1 UNK         0.0541 
    132 H132       35.5339    3.1181   -8.6669 H         1 UNK         0.3459 
    133 H133       36.2486    1.8281   -7.7352 H         1 UNK         0.3459 
    134 H134       33.4532    1.0791   -5.1978 H         1 UNK         0.0612 
    135 H135       35.1445    1.3881   -5.5005 H         1 UNK         0.0612 
    136 H136       34.6480    0.4723   -2.8138 H         1 UNK         0.0624 
    137 H137       34.8101   -1.2250   -2.4355 H         1 UNK         0.0624 
@<TRIPOS>BOND
     1    1    2 1    
     2    1   72 1    
     3    1   73 1    
     4    1   74 1    
     5    2    3 2    
     6    2    4 am   BACKBONE|DICT|INTERRES
     7    4    5 1    
     8    4   75 1    
     9    5    6 1    
    10    5   35 1    
    11    5   76 1    
    12    6    7 1    
    13    6   77 1    
    14    6   78 1    
    15    7    8 1    
    16    8    9 1    
    17    8   79 1    
    18    8   80 1    
    19    9   10 ar   
    20    9   14 ar   
    21   10   11 ar   
    22   10   81 1    
    23   11   12 ar   
    24   11   71 1    
    25   12   13 ar   
    26   12   82 1    
    27   13   14 ar   
    28   13   15 1    
    29   14   83 1    
    30   15   16 1    
    31   15   84 1    
    32   15   85 1    
    33   16   17 1    
    34   17   18 1    
    35   17   86 1    
    36   17   87 1    
    37   18   19 1    
    38   18   37 1    
    39   18   88 1    
    40   19   20 am   BACKBONE|DICT|INTERRES
    41   19   89 1    
    42   20   21 2    
    43   20   22 1    
    44   22   23 1    
    45   22   24 1    
    46   22   90 1    
    47   23   91 1    
    48   23   92 1    
    49   23   93 1    
    50   24   25 am   BACKBONE|DICT|INTERRES
    51   24   94 1    
    52   25   26 2    
    53   25   27 1    
    54   27   28 1    
    55   27   29 1    
    56   27   95 1    
    57   28   96 1    
    58   28   97 1    
    59   28   98 1    
    60   29   30 am   BACKBONE|DICT|INTERRES
    61   29   99 1    
    62   30   31 2    
    63   30   32 1    
    64   32   33 1    
    65   32   34 1    
    66   32  100 1    
    67   33  101 1    
    68   33  102 1    
    69   33  103 1    
    70   34   35 am   BACKBONE|DICT|INTERRES
    71   34  104 1    
    72   35   36 2    
    73   37   38 2    
    74   37   39 am   BACKBONE|DICT|INTERRES
    75   39   40 1    
    76   39  105 1    
    77   40   41 1    
    78   40   42 1    
    79   40  106 1    
    80   41  107 1    
    81   41  108 1    
    82   41  109 1    
    83   42   43 2    
    84   42   44 am   BACKBONE|DICT|INTERRES
    85   44   45 1    
    86   44  110 1    
    87   45   46 1    
    88   45   47 1    
    89   45  111 1    
    90   46  112 1    
    91   46  113 1    
    92   46  114 1    
    93   47   48 2    
    94   47   49 am   BACKBONE|DICT|INTERRES
    95   49   50 1    
    96   49  115 1    
    97   50   51 1    
    98   50   52 1    
    99   50  116 1    
   100   51  117 1    
   101   51  118 1    
   102   51  119 1    
   103   52   53 2    
   104   52   54 am   BACKBONE|DICT|INTERRES
   105   54   55 1    
   106   54  120 1    
   107   55   56 1    
   108   55   57 1    
   109   55  121 1    
   110   56  122 1    
   111   56  123 1    
   112   56  124 1    
   113   57   58 2    
   114   57   59 am   BACKBONE|DICT|INTERRES
   115   59   60 1    
   116   59  125 1    
   117   60   61 1    
   118   60   62 1    
   119   60  126 1    
   120   61  127 1    
   121   61  128 1    
   122   61  129 1    
   123   62   63 2    
   124   62   64 am   BACKBONE|DICT|INTERRES
   125   64   65 1    
   126   64  130 1    
   127   65   66 1    
   128   65   69 1    
   129   65  131 1    
   130   66   67 am   BACKBONE|DICT|INTERRES
   131   66   68 2    
   132   67  132 1    
   133   67  133 1    
   134   69   70 1    
   135   69  134 1    
   136   69  135 1    
   137   70   71 1    
   138   71  136 1    
   139   71  137 1    
@<TRIPOS>SUBSTRUCTURE
     1 UNK         1 GROUP             0       ****    0 ROOT    
