@<TRIPOS>MOLECULE
3R137
137   139    1
SMALL
USER_CHARGES


@<TRIPOS>ATOM
      1 CA         28.3426   -5.2972    1.3004 C.3       0 UNK        -0.2020 
      2 C          28.1454   -3.8050    1.0786 C.2       0 UNK         0.4855 
      3 O          27.4096   -3.1666    1.8312 O.2       0 UNK        -0.5197 
      4 N          28.8019   -3.2467    0.0528 N.am      1 UNK        -0.4892 
      5 CA         28.7392   -1.8264   -0.3213 C.3       1 UNK         0.0835 
      6 C6         29.8359   -1.4390   -1.3448 C.3       12 UNK        -0.0855 
      7 S7         31.5407   -1.7484   -0.7494 S.3       12 UNK        -0.2931 
      8 C8         31.9414   -3.4445   -1.3015 C.3       12 UNK         0.0378 
      9 C9         31.7566   -3.6638   -2.7978 C.ar      12 UNK        -0.0802 
     10 C10        32.7929   -3.3929   -3.6987 C.ar      12 UNK        -0.0944 
     11 C11        32.6214   -3.6294   -5.0684 C.ar      12 UNK        -0.0787 
     12 C12        31.3951   -4.1148   -5.5359 C.ar      12 UNK        -0.0862 
     13 C13        30.3528   -4.3812   -4.6436 C.ar      12 UNK        -0.0733 
     14 C14        30.5493   -4.1768   -3.2781 C.ar      12 UNK        -0.0832 
     15 C15        29.0065   -4.8880   -5.1327 C.3       12 UNK         0.0240 
     16 S16        27.8199   -3.5189   -5.2952 S.3       12 UNK        -0.2522 
     17 C17        28.1596   -3.0018   -7.0080 C.3       12 UNK        -0.0967 
     18 CA         27.3814   -1.7493   -7.4787 C.3       5 UNK         0.0660 
     19 N          25.9596   -1.7658   -7.1252 N.am      5 UNK        -0.4015 
     20 C          25.0209   -1.0800   -7.7908 C.2       4 UNK         0.4946 
     21 O          25.2607   -0.3672   -8.7653 O.2       4 UNK        -0.5353 
     22 CA         23.5817   -1.1726   -7.2622 C.3       4 UNK         0.0277 
     23 CB         23.0150   -2.5932   -7.4257 C.3       4 UNK        -0.1981 
     24 N          23.4724   -0.7483   -5.8661 N.am      4 UNK        -0.4209 
     25 C          23.7376    0.4886   -5.4210 C.2       3 UNK         0.4942 
     26 O          24.0767    1.4231   -6.1462 O.2       3 UNK        -0.5208 
     27 CA         23.6175    0.7264   -3.9058 C.3       3 UNK         0.0250 
     28 CB         22.1972    1.1966   -3.5521 C.3       3 UNK        -0.1990 
     29 N          23.9687   -0.4275   -3.0702 N.am      3 UNK        -0.4232 
     30 C          25.1437   -1.0734   -3.0799 C.2       2 UNK         0.4993 
     31 O          26.0514   -0.8469   -3.8834 O.2       2 UNK        -0.5286 
     32 CA         25.2966   -2.1974   -2.0417 C.3       2 UNK         0.0209 
     33 CB         24.8324   -3.5390   -2.6322 C.3       2 UNK        -0.1931 
     34 N          26.6667   -2.3425   -1.5440 N.am      2 UNK        -0.4546 
     35 C          27.3406   -1.4204   -0.8385 C.2       1 UNK         0.5154 
     36 O          26.8889   -0.3104   -0.5513 O.2       1 UNK        -0.5181 
     37 C          28.0746   -0.4285   -7.0981 C.2       5 UNK         0.5014 
     38 O          29.0105   -0.0414   -7.7978 O.2       5 UNK        -0.5248 
     39 N          27.5939    0.2800   -6.0646 N.am      6 UNK        -0.4434 
     40 CA         28.0315    1.6457   -5.7466 C.3       6 UNK         0.0363 
     41 CB         27.4138    2.1006   -4.4171 C.3       6 UNK        -0.1936 
     42 C          27.7224    2.6585   -6.8653 C.2       6 UNK         0.5081 
     43 O          28.4792    3.6134   -7.0345 O.2       6 UNK        -0.5248 
     44 N          26.6411    2.4292   -7.6219 N.am      7 UNK        -0.4718 
     45 CA         26.3071    3.1906   -8.8226 C.3       7 UNK         0.0273 
     46 CB         24.7835    3.1834   -9.0328 C.3       7 UNK        -0.1935 
     47 C          27.0400    2.6423  -10.0572 C.2       7 UNK         0.5018 
     48 O          27.7054    3.4099  -10.7527 O.2       7 UNK        -0.5186 
     49 N          26.8849    1.3374  -10.3253 N.am      8 UNK        -0.4240 
     50 CA         27.3213    0.6962  -11.5690 C.3       8 UNK         0.0235 
     51 CB         26.5959   -0.6493  -11.7353 C.3       8 UNK        -0.2000 
     52 C          28.8401    0.4995  -11.6925 C.2       8 UNK         0.4941 
     53 O          29.3775    0.7000  -12.7830 O.2       8 UNK        -0.5273 
     54 N          29.4981    0.0866  -10.6013 N.am      9 UNK        -0.4262 
     55 CA         30.9240   -0.2576  -10.5709 C.3       9 UNK         0.0264 
     56 CB         31.0807   -1.6606   -9.9550 C.3       9 UNK        -0.1955 
     57 C          31.7621    0.7691   -9.7917 C.2       9 UNK         0.5031 
     58 O          32.9811    0.6075   -9.7196 O.2       9 UNK        -0.5390 
     59 N          31.1113    1.7787   -9.1949 N.am      10 UNK        -0.4204 
     60 CA         31.6446    2.8479   -8.3377 C.3       10 UNK         0.0237 
     61 CB         32.7216    3.6818   -9.0603 C.3       10 UNK        -0.1985 
     62 C          32.1352    2.3754   -6.9552 C.2       10 UNK         0.4970 
     63 O          31.9458    3.1012   -5.9781 O.2       10 UNK        -0.4914 
     64 N          32.7514    1.1901   -6.8847 N.am      11 UNK        -0.4285 
     65 CA         33.2172    0.5520   -5.6458 C.3       11 UNK         0.1007 
     66 C          32.0858    0.1214   -4.6731 C.2       11 UNK         0.5703 
     67 N          30.9166   -0.2729   -5.1619 N.am      11 UNK        -0.7361 
     68 O          32.2718    0.1763   -3.4615 O.2       11 UNK        -0.4986 
     69 C69        34.2113   -0.6046   -5.9268 C.3       12 UNK        -0.0947 
     70 S70        33.5595   -1.8990   -7.0413 S.3       12 UNK        -0.2240 
     71 C71        33.7681   -3.4081   -6.0452 C.3       12 UNK         0.0194 
     72 H72        28.7533   -5.4773    2.2936 H         1 UNK         0.0906 
     73 H73        27.3871   -5.8161    1.2281 H         1 UNK         0.0906 
     74 H74        29.0219   -5.7347    0.5690 H         1 UNK         0.0906 
     75 H75        29.4220   -3.8152   -0.5010 H         1 UNK         0.3140 
     76 H76        28.9150   -1.2468    0.5880 H         1 UNK         0.1085 
     77 H77        29.6683   -1.9174   -2.3082 H         1 UNK         0.0836 
     78 H78        29.7754   -0.3686   -1.5531 H         1 UNK         0.0836 
     79 H79        32.9780   -3.6540   -1.0328 H         1 UNK         0.0731 
     80 H80        31.3457   -4.1622   -0.7372 H         1 UNK         0.0731 
     81 H81        33.7350   -3.0100   -3.3312 H         1 UNK         0.1312 
     82 H82        31.2566   -4.2874   -6.5944 H         1 UNK         0.1406 
     83 H83        29.7442   -4.3993   -2.5933 H         1 UNK         0.1631 
     84 H84        28.6079   -5.6151   -4.4235 H         1 UNK         0.0717 
     85 H85        29.1098   -5.4166   -6.0816 H         1 UNK         0.0717 
     86 H86        29.2348   -2.8615   -7.1364 H         1 UNK         0.0934 
     87 H87        27.8972   -3.8406   -7.6549 H         1 UNK         0.0934 
     88 H88        27.4276   -1.7776   -8.5697 H         1 UNK         0.0739 
     89 H89        25.7127   -2.2883   -6.2967 H         1 UNK         0.3093 
     90 H90        22.9702   -0.4952   -7.8624 H         1 UNK         0.0818 
     91 H91        21.9585   -2.6298   -7.1592 H         1 UNK         0.0819 
     92 H92        23.0964   -2.9278   -8.4610 H         1 UNK         0.0819 
     93 H93        23.5412   -3.3199   -6.8057 H         1 UNK         0.0819 
     94 H94        23.1986   -1.4475   -5.1918 H         1 UNK         0.3041 
     95 H95        24.3080    1.5299   -3.6464 H         1 UNK         0.0784 
     96 H96        21.9172    2.0704   -4.1426 H         1 UNK         0.0793 
     97 H97        21.4542    0.4216   -3.7452 H         1 UNK         0.0793 
     98 H98        22.1218    1.4819   -2.5026 H         1 UNK         0.0793 
     99 H99        23.2753   -0.7047   -2.3901 H         1 UNK         0.3024 
    100 H100       24.6672   -1.9589   -1.1813 H         1 UNK         0.1171 
    101 H101       23.7989   -3.4816   -2.9763 H         1 UNK         0.0786 
    102 H102       24.8796   -4.3370   -1.8908 H         1 UNK         0.0786 
    103 H103       25.4426   -3.8376   -3.4849 H         1 UNK         0.0786 
    104 H104       27.1276   -3.2171   -1.7429 H         1 UNK         0.2977 
    105 H105       26.8850   -0.1308   -5.4601 H         1 UNK         0.3127 
    106 H106       29.1152    1.6325   -5.6240 H         1 UNK         0.0770 
    107 H107       26.3305    2.1799   -4.4901 H         1 UNK         0.0814 
    108 H108       27.7934    3.0815   -4.1285 H         1 UNK         0.0814 
    109 H109       27.6509    1.4090   -3.6083 H         1 UNK         0.0814 
    110 H110       26.0345    1.6523   -7.3884 H         1 UNK         0.2983 
    111 H111       26.6154    4.2299   -8.6872 H         1 UNK         0.0947 
    112 H112       24.5094    3.7426   -9.9283 H         1 UNK         0.0806 
    113 H113       24.2689    3.6461   -8.1904 H         1 UNK         0.0806 
    114 H114       24.3888    2.1729   -9.1438 H         1 UNK         0.0806 
    115 H115       26.3058    0.7734   -9.7034 H         1 UNK         0.3000 
    116 H116       27.0121    1.3402  -12.3955 H         1 UNK         0.0850 
    117 H117       26.8671   -1.1267  -12.6779 H         1 UNK         0.0810 
    118 H118       25.5135   -0.5181  -11.7386 H         1 UNK         0.0810 
    119 H119       26.8441   -1.3455  -10.9337 H         1 UNK         0.0810 
    120 H120       29.0040   -0.0162   -9.7187 H         1 UNK         0.3040 
    121 H121       31.3309   -0.2913  -11.5836 H         1 UNK         0.0766 
    122 H122       32.1211   -1.9869   -9.9876 H         1 UNK         0.0812 
    123 H123       30.4935   -2.4015  -10.4978 H         1 UNK         0.0812 
    124 H124       30.7698   -1.6843   -8.9102 H         1 UNK         0.0812 
    125 H125       30.1035    1.7669   -9.2742 H         1 UNK         0.3205 
    126 H126       30.8017    3.5140   -8.1538 H         1 UNK         0.0754 
    127 H127       33.0065    4.5472   -8.4605 H         1 UNK         0.0769 
    128 H128       32.3573    4.0564  -10.0172 H         1 UNK         0.0769 
    129 H129       33.6298    3.1080   -9.2468 H         1 UNK         0.0769 
    130 H130       32.9023    0.6752   -7.7463 H         1 UNK         0.2981 
    131 H131       33.7853    1.3160   -5.1109 H         1 UNK         0.0541 
    132 H132       30.7579   -0.2974   -6.1578 H         1 UNK         0.3459 
    133 H133       30.1942   -0.5618   -4.5247 H         1 UNK         0.3459 
    134 H134       34.5477   -1.0516   -4.9896 H         1 UNK         0.0612 
    135 H135       35.1102   -0.1994   -6.3940 H         1 UNK         0.0612 
    136 H136       33.8224   -4.2606   -6.7238 H         1 UNK         0.0624 
    137 H137       34.7266   -3.3793   -5.5250 H         1 UNK         0.0624 
@<TRIPOS>BOND
     1    1    2 1    
     2    1   72 1    
     3    1   73 1    
     4    1   74 1    
     5    2    3 2    
     6    2    4 am   BACKBONE|DICT|INTERRES
     7    4    5 1    
     8    4   75 1    
     9    5    6 1    
    10    5   35 1    
    11    5   76 1    
    12    6    7 1    
    13    6   77 1    
    14    6   78 1    
    15    7    8 1    
    16    8    9 1    
    17    8   79 1    
    18    8   80 1    
    19    9   10 ar   
    20    9   14 ar   
    21   10   11 ar   
    22   10   81 1    
    23   11   12 ar   
    24   11   71 1    
    25   12   13 ar   
    26   12   82 1    
    27   13   14 ar   
    28   13   15 1    
    29   14   83 1    
    30   15   16 1    
    31   15   84 1    
    32   15   85 1    
    33   16   17 1    
    34   17   18 1    
    35   17   86 1    
    36   17   87 1    
    37   18   19 1    
    38   18   37 1    
    39   18   88 1    
    40   19   20 am   BACKBONE|DICT|INTERRES
    41   19   89 1    
    42   20   21 2    
    43   20   22 1    
    44   22   23 1    
    45   22   24 1    
    46   22   90 1    
    47   23   91 1    
    48   23   92 1    
    49   23   93 1    
    50   24   25 am   BACKBONE|DICT|INTERRES
    51   24   94 1    
    52   25   26 2    
    53   25   27 1    
    54   27   28 1    
    55   27   29 1    
    56   27   95 1    
    57   28   96 1    
    58   28   97 1    
    59   28   98 1    
    60   29   30 am   BACKBONE|DICT|INTERRES
    61   29   99 1    
    62   30   31 2    
    63   30   32 1    
    64   32   33 1    
    65   32   34 1    
    66   32  100 1    
    67   33  101 1    
    68   33  102 1    
    69   33  103 1    
    70   34   35 am   BACKBONE|DICT|INTERRES
    71   34  104 1    
    72   35   36 2    
    73   37   38 2    
    74   37   39 am   BACKBONE|DICT|INTERRES
    75   39   40 1    
    76   39  105 1    
    77   40   41 1    
    78   40   42 1    
    79   40  106 1    
    80   41  107 1    
    81   41  108 1    
    82   41  109 1    
    83   42   43 2    
    84   42   44 am   BACKBONE|DICT|INTERRES
    85   44   45 1    
    86   44  110 1    
    87   45   46 1    
    88   45   47 1    
    89   45  111 1    
    90   46  112 1    
    91   46  113 1    
    92   46  114 1    
    93   47   48 2    
    94   47   49 am   BACKBONE|DICT|INTERRES
    95   49   50 1    
    96   49  115 1    
    97   50   51 1    
    98   50   52 1    
    99   50  116 1    
   100   51  117 1    
   101   51  118 1    
   102   51  119 1    
   103   52   53 2    
   104   52   54 am   BACKBONE|DICT|INTERRES
   105   54   55 1    
   106   54  120 1    
   107   55   56 1    
   108   55   57 1    
   109   55  121 1    
   110   56  122 1    
   111   56  123 1    
   112   56  124 1    
   113   57   58 2    
   114   57   59 am   BACKBONE|DICT|INTERRES
   115   59   60 1    
   116   59  125 1    
   117   60   61 1    
   118   60   62 1    
   119   60  126 1    
   120   61  127 1    
   121   61  128 1    
   122   61  129 1    
   123   62   63 2    
   124   62   64 am   BACKBONE|DICT|INTERRES
   125   64   65 1    
   126   64  130 1    
   127   65   66 1    
   128   65   69 1    
   129   65  131 1    
   130   66   67 am   BACKBONE|DICT|INTERRES
   131   66   68 2    
   132   67  132 1    
   133   67  133 1    
   134   69   70 1    
   135   69  134 1    
   136   69  135 1    
   137   70   71 1    
   138   71  136 1    
   139   71  137 1    
@<TRIPOS>SUBSTRUCTURE
     1 UNK         1 GROUP             0       ****    0 ROOT    
