@<TRIPOS>MOLECULE
3R137
137   139    1
SMALL
USER_CHARGES


@<TRIPOS>ATOM
      1 CA         25.9086   -3.5024    2.4555 C.3       0 UNK        -0.2020 
      2 C          26.2945   -2.8706    1.1269 C.2       0 UNK         0.4855 
      3 O          25.9212   -1.7291    0.8573 O.2       0 UNK        -0.5197 
      4 N          27.0202   -3.6088    0.2786 N.am      1 UNK        -0.4892 
      5 CA         27.5557   -3.1709   -1.0218 C.3       1 UNK         0.0835 
      6 C6         28.8247   -3.9835   -1.4017 C.3       12 UNK        -0.0855 
      7 S7         30.1287   -3.8495   -0.1246 S.3       12 UNK        -0.2931 
      8 C8         31.6668   -4.0349   -1.0958 C.3       12 UNK         0.0378 
      9 C9         31.9102   -2.9564   -2.1525 C.ar      12 UNK        -0.0802 
     10 C10        32.7023   -3.2668   -3.2621 C.ar      12 UNK        -0.0944 
     11 C11        32.9369   -2.3233   -4.2664 C.ar      12 UNK        -0.0787 
     12 C12        32.3363   -1.0623   -4.1677 C.ar      12 UNK        -0.0862 
     13 C13        31.5573   -0.7251   -3.0580 C.ar      12 UNK        -0.0733 
     14 C14        31.3742   -1.6679   -2.0411 C.ar      12 UNK        -0.0832 
     15 C15        30.9417    0.6685   -2.9686 C.3       12 UNK         0.0240 
     16 S16        29.2526    0.7006   -2.2773 S.3       12 UNK        -0.2522 
     17 C17        28.3313   -0.3899   -3.4187 C.3       12 UNK        -0.0967 
     18 CA         28.1595    0.1148   -4.8736 C.3       5 UNK         0.0660 
     19 N          27.2896   -0.7692   -5.6517 N.am      5 UNK        -0.4015 
     20 C          27.2825   -0.8239   -6.9910 C.2       4 UNK         0.4946 
     21 O          28.0979   -0.2319   -7.6994 O.2       4 UNK        -0.5353 
     22 CA         26.1800   -1.6562   -7.6694 C.3       4 UNK         0.0277 
     23 CB         26.6677   -3.0829   -7.9614 C.3       4 UNK        -0.1981 
     24 N          24.9365   -1.7091   -6.8983 N.am      4 UNK        -0.4209 
     25 C          24.1382   -0.6521   -6.6941 C.2       3 UNK         0.4942 
     26 O          24.3573    0.4657   -7.1557 O.2       3 UNK        -0.5208 
     27 CA         22.9153   -0.8579   -5.7869 C.3       3 UNK         0.0250 
     28 CB         21.7040   -1.3124   -6.6163 C.3       3 UNK        -0.1990 
     29 N          23.1319   -1.7959   -4.6807 N.am      3 UNK        -0.4232 
     30 C          24.0841   -1.6947   -3.7418 C.2       2 UNK         0.4993 
     31 O          24.9441   -0.8083   -3.7393 O.2       2 UNK        -0.5286 
     32 CA         24.0324   -2.7424   -2.6121 C.3       2 UNK         0.0209 
     33 CB         23.6663   -4.1592   -3.1134 C.3       2 UNK        -0.1931 
     34 N          25.2495   -2.7817   -1.7930 N.am      2 UNK        -0.4546 
     35 C          26.4802   -3.1841   -2.1407 C.2       1 UNK         0.5154 
     36 O          26.7755   -3.5632   -3.2760 O.2       1 UNK        -0.5181 
     37 C          27.6354    1.5600   -4.9607 C.2       5 UNK         0.5014 
     38 O          28.4158    2.4623   -5.2651 O.2       5 UNK        -0.5248 
     39 N          26.3240    1.7466   -4.7401 N.am      6 UNK        -0.4434 
     40 CA         25.6459    3.0480   -4.7897 C.3       6 UNK         0.0363 
     41 CB         24.1709    2.8763   -4.3951 C.3       6 UNK        -0.1936 
     42 C          25.7656    3.7582   -6.1516 C.2       6 UNK         0.5081 
     43 O          25.9803    4.9700   -6.1872 O.2       6 UNK        -0.5248 
     44 N          25.6573    2.9898   -7.2429 N.am      7 UNK        -0.4718 
     45 CA         25.8411    3.4562   -8.6196 C.3       7 UNK         0.0273 
     46 CB         25.1297    2.4764   -9.5688 C.3       7 UNK        -0.1935 
     47 C          27.3172    3.6098   -9.0339 C.2       7 UNK         0.5018 
     48 O          27.5694    4.1571  -10.1081 O.2       7 UNK        -0.5186 
     49 N          28.2533    3.1043   -8.2130 N.am      8 UNK        -0.4240 
     50 CA         29.6966    2.9930   -8.4680 C.3       8 UNK         0.0235 
     51 CB         30.3625    4.3851   -8.4926 C.3       8 UNK        -0.2000 
     52 C          30.0090    2.1459   -9.7195 C.2       8 UNK         0.4941 
     53 O          30.8731    2.5091  -10.5196 O.2       8 UNK        -0.5273 
     54 N          29.2745    1.0372   -9.8665 N.am      9 UNK        -0.4262 
     55 CA         29.3725    0.0880  -10.9739 C.3       9 UNK         0.0264 
     56 CB         27.9521   -0.2679  -11.4435 C.3       9 UNK        -0.1955 
     57 C          30.1323   -1.1865  -10.5738 C.2       9 UNK         0.5031 
     58 O          30.6839   -1.8477  -11.4544 O.2       9 UNK        -0.5390 
     59 N          30.1444   -1.5198   -9.2729 N.am      10 UNK        -0.4204 
     60 CA         30.7887   -2.7137   -8.7137 C.3       10 UNK         0.0237 
     61 CB         30.4478   -2.8296   -7.2170 C.3       10 UNK        -0.1985 
     62 C          32.3140   -2.7519   -8.9140 C.2       10 UNK         0.4970 
     63 O          32.8639   -3.8282   -9.1502 O.2       10 UNK        -0.4914 
     64 N          32.9612   -1.5883   -8.8051 N.am      11 UNK        -0.4285 
     65 CA         34.4059   -1.3871   -8.9533 C.3       11 UNK         0.1007 
     66 C          34.7239    0.1091   -9.2137 C.2       11 UNK         0.5703 
     67 N          35.9313    0.4179   -9.6670 N.am      11 UNK        -0.7361 
     68 O          33.8919    0.9915   -9.0051 O.2       11 UNK        -0.4986 
     69 C69        35.2355   -1.9955   -7.7824 C.3       12 UNK        -0.0947 
     70 S70        34.8014   -1.3376   -6.1341 S.3       12 UNK        -0.2240 
     71 C71        33.8007   -2.7089   -5.4650 C.3       12 UNK         0.0194 
     72 H72        26.3043   -4.5128    2.5572 H         1 UNK         0.0906 
     73 H73        26.2937   -2.9035    3.2804 H         1 UNK         0.0906 
     74 H74        24.8239   -3.5516    2.5472 H         1 UNK         0.0906 
     75 H75        27.2821   -4.5465    0.5492 H         1 UNK         0.3140 
     76 H76        27.8610   -2.1267   -0.9214 H         1 UNK         0.1085 
     77 H77        29.2264   -3.6366   -2.3552 H         1 UNK         0.0836 
     78 H78        28.5805   -5.0380   -1.5420 H         1 UNK         0.0836 
     79 H79        31.6508   -5.0189   -1.5675 H         1 UNK         0.0731 
     80 H80        32.5120   -4.0369   -0.4064 H         1 UNK         0.0731 
     81 H81        33.1368   -4.2539   -3.3467 H         1 UNK         0.1312 
     82 H82        32.4829   -0.3338   -4.9529 H         1 UNK         0.1406 
     83 H83        30.7884   -1.4008   -1.1732 H         1 UNK         0.1631 
     84 H84        30.9197    1.1437   -3.9506 H         1 UNK         0.0717 
     85 H85        31.5834    1.2898   -2.3428 H         1 UNK         0.0717 
     86 H86        28.8058   -1.3719   -3.4282 H         1 UNK         0.0934 
     87 H87        27.3528   -0.5378   -2.9640 H         1 UNK         0.0934 
     88 H88        29.1481    0.1018   -5.3380 H         1 UNK         0.0739 
     89 H89        26.5629   -1.2501   -5.1353 H         1 UNK         0.3093 
     90 H90        25.9554   -1.1752   -8.6238 H         1 UNK         0.0818 
     91 H91        27.5483   -3.0690   -8.6049 H         1 UNK         0.0819 
     92 H92        26.9328   -3.6165   -7.0475 H         1 UNK         0.0819 
     93 H93        25.9052   -3.6641   -8.4802 H         1 UNK         0.0819 
     94 H94        24.6869   -2.5930   -6.4787 H         1 UNK         0.3041 
     95 H95        22.6757    0.1096   -5.3427 H         1 UNK         0.0784 
     96 H96        21.5095   -0.6179   -7.4352 H         1 UNK         0.0793 
     97 H97        21.8605   -2.2984   -7.0557 H         1 UNK         0.0793 
     98 H98        20.7992   -1.3538   -6.0096 H         1 UNK         0.0793 
     99 H99        22.4670   -2.5519   -4.6024 H         1 UNK         0.3024 
    100 H100       23.2382   -2.4130   -1.9401 H         1 UNK         0.1171 
    101 H101       23.7173   -4.8880   -2.3042 H         1 UNK         0.0786 
    102 H102       22.6493   -4.1989   -3.5044 H         1 UNK         0.0786 
    103 H103       24.3362   -4.4973   -3.9049 H         1 UNK         0.0786 
    104 H104       25.1571   -2.4126   -0.8513 H         1 UNK         0.2977 
    105 H105       25.7580    0.9431   -4.4845 H         1 UNK         0.3127 
    106 H106       26.1244    3.6868   -4.0444 H         1 UNK         0.0770 
    107 H107       23.6280    2.2733   -5.1226 H         1 UNK         0.0814 
    108 H108       23.6698    3.8434   -4.3381 H         1 UNK         0.0814 
    109 H109       24.0704    2.4000   -3.4196 H         1 UNK         0.0814 
    110 H110       25.3882    2.0140   -7.1280 H         1 UNK         0.2983 
    111 H111       25.3708    4.4366   -8.7225 H         1 UNK         0.0947 
    112 H112       25.5698    1.4793   -9.5199 H         1 UNK         0.0806 
    113 H113       25.1964    2.8122  -10.6046 H         1 UNK         0.0806 
    114 H114       24.0708    2.3863   -9.3257 H         1 UNK         0.0806 
    115 H115       27.9447    2.7170   -7.3285 H         1 UNK         0.3000 
    116 H116       30.1122    2.4450   -7.6208 H         1 UNK         0.0850 
    117 H117       30.1387    4.9461   -7.5853 H         1 UNK         0.0810 
    118 H118       30.0321    4.9785   -9.3456 H         1 UNK         0.0810 
    119 H119       31.4476    4.2964   -8.5594 H         1 UNK         0.0810 
    120 H120       28.6329    0.7869   -9.1163 H         1 UNK         0.3040 
    121 H121       29.9053    0.5432  -11.8115 H         1 UNK         0.0766 
    122 H122       27.9813   -0.9552  -12.2902 H         1 UNK         0.0812 
    123 H123       27.4083    0.6205  -11.7655 H         1 UNK         0.0812 
    124 H124       27.3727   -0.7469  -10.6536 H         1 UNK         0.0812 
    125 H125       29.6050   -0.9480   -8.6290 H         1 UNK         0.3205 
    126 H126       30.3705   -3.5822   -9.2268 H         1 UNK         0.0754 
    127 H127       30.9116   -3.7133   -6.7769 H         1 UNK         0.0769 
    128 H128       29.3772   -2.9270   -7.0526 H         1 UNK         0.0769 
    129 H129       30.7930   -1.9619   -6.6536 H         1 UNK         0.0769 
    130 H130       32.4412   -0.7368   -8.6416 H         1 UNK         0.2981 
    131 H131       34.6938   -1.9071   -9.8689 H         1 UNK         0.0541 
    132 H132       36.6233   -0.2943   -9.8400 H         1 UNK         0.3459 
    133 H133       36.1551    1.3857   -9.8382 H         1 UNK         0.3459 
    134 H134       35.1254   -3.0806   -7.7741 H         1 UNK         0.0612 
    135 H135       36.3006   -1.8216   -7.9426 H         1 UNK         0.0612 
    136 H136       33.1493   -3.1016   -6.2415 H         1 UNK         0.0624 
    137 H137       34.4803   -3.5192   -5.1964 H         1 UNK         0.0624 
@<TRIPOS>BOND
     1    1    2 1    
     2    1   72 1    
     3    1   73 1    
     4    1   74 1    
     5    2    3 2    
     6    2    4 am   BACKBONE|DICT|INTERRES
     7    4    5 1    
     8    4   75 1    
     9    5    6 1    
    10    5   35 1    
    11    5   76 1    
    12    6    7 1    
    13    6   77 1    
    14    6   78 1    
    15    7    8 1    
    16    8    9 1    
    17    8   79 1    
    18    8   80 1    
    19    9   10 ar   
    20    9   14 ar   
    21   10   11 ar   
    22   10   81 1    
    23   11   12 ar   
    24   11   71 1    
    25   12   13 ar   
    26   12   82 1    
    27   13   14 ar   
    28   13   15 1    
    29   14   83 1    
    30   15   16 1    
    31   15   84 1    
    32   15   85 1    
    33   16   17 1    
    34   17   18 1    
    35   17   86 1    
    36   17   87 1    
    37   18   19 1    
    38   18   37 1    
    39   18   88 1    
    40   19   20 am   BACKBONE|DICT|INTERRES
    41   19   89 1    
    42   20   21 2    
    43   20   22 1    
    44   22   23 1    
    45   22   24 1    
    46   22   90 1    
    47   23   91 1    
    48   23   92 1    
    49   23   93 1    
    50   24   25 am   BACKBONE|DICT|INTERRES
    51   24   94 1    
    52   25   26 2    
    53   25   27 1    
    54   27   28 1    
    55   27   29 1    
    56   27   95 1    
    57   28   96 1    
    58   28   97 1    
    59   28   98 1    
    60   29   30 am   BACKBONE|DICT|INTERRES
    61   29   99 1    
    62   30   31 2    
    63   30   32 1    
    64   32   33 1    
    65   32   34 1    
    66   32  100 1    
    67   33  101 1    
    68   33  102 1    
    69   33  103 1    
    70   34   35 am   BACKBONE|DICT|INTERRES
    71   34  104 1    
    72   35   36 2    
    73   37   38 2    
    74   37   39 am   BACKBONE|DICT|INTERRES
    75   39   40 1    
    76   39  105 1    
    77   40   41 1    
    78   40   42 1    
    79   40  106 1    
    80   41  107 1    
    81   41  108 1    
    82   41  109 1    
    83   42   43 2    
    84   42   44 am   BACKBONE|DICT|INTERRES
    85   44   45 1    
    86   44  110 1    
    87   45   46 1    
    88   45   47 1    
    89   45  111 1    
    90   46  112 1    
    91   46  113 1    
    92   46  114 1    
    93   47   48 2    
    94   47   49 am   BACKBONE|DICT|INTERRES
    95   49   50 1    
    96   49  115 1    
    97   50   51 1    
    98   50   52 1    
    99   50  116 1    
   100   51  117 1    
   101   51  118 1    
   102   51  119 1    
   103   52   53 2    
   104   52   54 am   BACKBONE|DICT|INTERRES
   105   54   55 1    
   106   54  120 1    
   107   55   56 1    
   108   55   57 1    
   109   55  121 1    
   110   56  122 1    
   111   56  123 1    
   112   56  124 1    
   113   57   58 2    
   114   57   59 am   BACKBONE|DICT|INTERRES
   115   59   60 1    
   116   59  125 1    
   117   60   61 1    
   118   60   62 1    
   119   60  126 1    
   120   61  127 1    
   121   61  128 1    
   122   61  129 1    
   123   62   63 2    
   124   62   64 am   BACKBONE|DICT|INTERRES
   125   64   65 1    
   126   64  130 1    
   127   65   66 1    
   128   65   69 1    
   129   65  131 1    
   130   66   67 am   BACKBONE|DICT|INTERRES
   131   66   68 2    
   132   67  132 1    
   133   67  133 1    
   134   69   70 1    
   135   69  134 1    
   136   69  135 1    
   137   70   71 1    
   138   71  136 1    
   139   71  137 1    
@<TRIPOS>SUBSTRUCTURE
     1 UNK         1 GROUP             0       ****    0 ROOT    
