@<TRIPOS>MOLECULE
3R137
137   139    1
SMALL
USER_CHARGES


@<TRIPOS>ATOM
      1 CA         26.4930   -7.9818   -2.3658 C.3       0 UNK        -0.2020 
      2 C          26.8139   -6.6055   -1.8029 C.2       0 UNK         0.4855 
      3 O          26.6005   -6.3657   -0.6143 O.2       0 UNK        -0.5197 
      4 N          27.3271   -5.7007   -2.6471 N.am      1 UNK        -0.4892 
      5 CA         27.7066   -4.3283   -2.2819 C.3       1 UNK         0.0835 
      6 C6         28.5553   -3.6559   -3.3872 C.3       12 UNK        -0.0855 
      7 S7         30.1074   -4.5486   -3.7523 S.3       12 UNK        -0.2931 
      8 C8         31.3214   -3.7820   -2.6238 C.3       12 UNK         0.0378 
      9 C9         31.3788   -2.2662   -2.7572 C.ar      12 UNK        -0.0802 
     10 C10        31.9756   -1.6674   -3.8707 C.ar      12 UNK        -0.0944 
     11 C11        31.9742   -0.2755   -4.0166 C.ar      12 UNK        -0.0787 
     12 C12        31.4012    0.5181   -3.0194 C.ar      12 UNK        -0.0862 
     13 C13        30.7866   -0.0717   -1.9110 C.ar      12 UNK        -0.0733 
     14 C14        30.7955   -1.4614   -1.7757 C.ar      12 UNK        -0.0832 
     15 C15        30.0552    0.7820   -0.8865 C.3       12 UNK         0.0240 
     16 S16        28.7008    1.7524   -1.6283 S.3       12 UNK        -0.2522 
     17 C17        27.7768    0.5210   -2.6252 C.3       12 UNK        -0.0967 
     18 CA         27.9622    0.6931   -4.1611 C.3       5 UNK         0.0660 
     19 N          27.2629   -0.3331   -4.9424 N.am      5 UNK        -0.4015 
     20 C          27.5614   -0.6401   -6.2183 C.2       4 UNK         0.4946 
     21 O          28.5940   -0.2778   -6.7844 O.2       4 UNK        -0.5353 
     22 CA         26.5392   -1.4520   -7.0421 C.3       4 UNK         0.0277 
     23 CB         27.0630   -2.8568   -7.3742 C.3       4 UNK        -0.1981 
     24 N          25.2159   -1.5598   -6.4271 N.am      4 UNK        -0.4209 
     25 C          24.3454   -0.5474   -6.3113 C.2       3 UNK         0.4942 
     26 O          24.5500    0.5791   -6.7613 O.2       3 UNK        -0.5208 
     27 CA         23.0612   -0.8156   -5.5044 C.3       3 UNK         0.0250 
     28 CB         21.9107   -1.2039   -6.4458 C.3       3 UNK        -0.1990 
     29 N          23.2022   -1.8363   -4.4547 N.am      3 UNK        -0.4232 
     30 C          24.0953   -1.7994   -3.4537 C.2       2 UNK         0.4993 
     31 O          24.9291   -0.9004   -3.3387 O.2       2 UNK        -0.5286 
     32 CA         24.0947   -2.9610   -2.4423 C.3       2 UNK         0.0209 
     33 CB         22.8996   -3.9260   -2.5890 C.3       2 UNK        -0.1931 
     34 N          25.3372   -3.7257   -2.5629 N.am      2 UNK        -0.4546 
     35 C          26.4906   -3.4390   -1.9409 C.2       1 UNK         0.5154 
     36 O          26.6245   -2.5239   -1.1278 O.2       1 UNK        -0.5181 
     37 C          27.5055    2.0856   -4.6370 C.2       5 UNK         0.5014 
     38 O          28.3439    2.9016   -5.0193 O.2       5 UNK        -0.5248 
     39 N          26.1837    2.3205   -4.6214 N.am      6 UNK        -0.4434 
     40 CA         25.5477    3.5962   -4.9683 C.3       6 UNK         0.0363 
     41 CB         24.0376    3.5085   -4.6935 C.3       6 UNK        -0.1936 
     42 C          25.8128    4.0421   -6.4158 C.2       6 UNK         0.5081 
     43 O          26.1016    5.2162   -6.6478 O.2       6 UNK        -0.5248 
     44 N          25.7412    3.0920   -7.3560 N.am      7 UNK        -0.4718 
     45 CA         26.0733    3.2952   -8.7682 C.3       7 UNK         0.0273 
     46 CB         25.3631    2.2121   -9.5986 C.3       7 UNK        -0.1935 
     47 C          27.5883    3.2708   -9.0478 C.2       7 UNK         0.5018 
     48 O          27.9915    3.6198  -10.1571 O.2       7 UNK        -0.5186 
     49 N          28.3872    2.8101   -8.0711 N.am      8 UNK        -0.4240 
     50 CA         29.8337    2.5469   -8.1204 C.3       8 UNK         0.0235 
     51 CB         30.6308    3.8499   -8.3309 C.3       8 UNK        -0.2000 
     52 C          30.2467    1.4463   -9.1191 C.2       8 UNK         0.4941 
     53 O          31.4397    1.2799   -9.3777 O.2       8 UNK        -0.5273 
     54 N          29.2726    0.6851   -9.6375 N.am      9 UNK        -0.4262 
     55 CA         29.4345   -0.3704  -10.6399 C.3       9 UNK         0.0264 
     56 CB         28.0467   -0.8958  -11.0419 C.3       9 UNK        -0.1955 
     57 C          30.3415   -1.5302  -10.1965 C.2       9 UNK         0.5031 
     58 O          30.9412   -2.1815  -11.0526 O.2       9 UNK        -0.5390 
     59 N          30.4428   -1.7581   -8.8801 N.am      10 UNK        -0.4204 
     60 CA         31.3457   -2.7471   -8.2903 C.3       10 UNK         0.0237 
     61 CB         30.8275   -3.1286   -6.8963 C.3       10 UNK        -0.1985 
     62 C          32.8166   -2.2885   -8.2274 C.2       10 UNK         0.4970 
     63 O          33.6842   -3.1378   -8.0196 O.2       10 UNK        -0.4914 
     64 N          33.0769   -0.9843   -8.3919 N.am      11 UNK        -0.4285 
     65 CA         34.4151   -0.3750   -8.3293 C.3       11 UNK         0.1007 
     66 C          34.8619    0.1997   -9.6992 C.2       11 UNK         0.5703 
     67 N          33.9630    0.7359  -10.5156 N.am      11 UNK        -0.7361 
     68 O          36.0433    0.1458  -10.0327 O.2       11 UNK        -0.4986 
     69 C69        34.4972    0.7137   -7.2268 C.3       12 UNK        -0.0947 
     70 S70        34.2738    0.0299   -5.5502 S.3       12 UNK        -0.2240 
     71 C71        32.5070    0.3686   -5.2878 C.3       12 UNK         0.0194 
     72 H72        26.7369   -8.0571   -3.4254 H         1 UNK         0.0906 
     73 H73        27.0588   -8.7458   -1.8332 H         1 UNK         0.0906 
     74 H74        25.4318   -8.1981   -2.2458 H         1 UNK         0.0906 
     75 H75        27.5231   -5.9665   -3.6022 H         1 UNK         0.3140 
     76 H76        28.3147   -4.3839   -1.3761 H         1 UNK         0.1085 
     77 H77        27.9841   -3.6056   -4.3139 H         1 UNK         0.0836 
     78 H78        28.7756   -2.6190   -3.1382 H         1 UNK         0.0836 
     79 H79        32.3076   -4.1991   -2.8325 H         1 UNK         0.0731 
     80 H80        31.0814   -4.0704   -1.5992 H         1 UNK         0.0731 
     81 H81        32.4155   -2.2863   -4.6400 H         1 UNK         0.1312 
     82 H82        31.3747    1.5935   -3.1325 H         1 UNK         0.1406 
     83 H83        30.3120   -1.9210   -0.9240 H         1 UNK         0.1631 
     84 H84        30.7641    1.4634   -0.4145 H         1 UNK         0.0717 
     85 H85        29.6414    0.1647   -0.0875 H         1 UNK         0.0717 
     86 H86        28.0700   -0.4837   -2.3228 H         1 UNK         0.0934 
     87 H87        26.7256    0.6078   -2.3490 H         1 UNK         0.0934 
     88 H88        29.0273    0.6047   -4.3801 H         1 UNK         0.0739 
     89 H89        26.3963   -0.6757   -4.5362 H         1 UNK         0.3093 
     90 H90        26.4142   -0.9181   -7.9863 H         1 UNK         0.0818 
     91 H91        27.2524   -3.4475   -6.4793 H         1 UNK         0.0819 
     92 H92        26.3549   -3.4068   -7.9943 H         1 UNK         0.0819 
     93 H93        27.9936   -2.7998   -7.9370 H         1 UNK         0.0819 
     94 H94        24.9644   -2.4535   -6.0311 H         1 UNK         0.3041 
     95 H95        22.7955    0.1211   -5.0101 H         1 UNK         0.0784 
     96 H96        21.7706   -0.4501   -7.2223 H         1 UNK         0.0793 
     97 H97        22.0998   -2.1549   -6.9454 H         1 UNK         0.0793 
     98 H98        20.9668   -1.2882   -5.9068 H         1 UNK         0.0793 
     99 H99        22.5529   -2.6092   -4.4867 H         1 UNK         0.3024 
    100 H100       24.0419   -2.5098   -1.4486 H         1 UNK         0.1171 
    101 H101       21.9493   -3.3986   -2.4925 H         1 UNK         0.0786 
    102 H102       22.9176   -4.6844   -1.8057 H         1 UNK         0.0786 
    103 H103       22.9012   -4.4481   -3.5467 H         1 UNK         0.0786 
    104 H104       25.3327   -4.5050   -3.2046 H         1 UNK         0.2977 
    105 H105       25.5673    1.5796   -4.3187 H         1 UNK         0.3127 
    106 H106       25.9693    4.3584   -4.3095 H         1 UNK         0.0770 
    107 H107       23.5584    2.7418   -5.3035 H         1 UNK         0.0814 
    108 H108       23.5459    4.4562   -4.9175 H         1 UNK         0.0814 
    109 H109       23.8360    3.2802   -3.6468 H         1 UNK         0.0814 
    110 H110       25.4224    2.1616   -7.0865 H         1 UNK         0.2983 
    111 H111       25.6988    4.2715   -9.0840 H         1 UNK         0.0947 
    112 H112       25.5528    2.3455  -10.6646 H         1 UNK         0.0806 
    113 H113       24.2829    2.2497   -9.4558 H         1 UNK         0.0806 
    114 H114       25.6986    1.2100   -9.3291 H         1 UNK         0.0806 
    115 H115       27.9554    2.6001   -7.1795 H         1 UNK         0.3000 
    116 H116       30.0948    2.1583   -7.1347 H         1 UNK         0.0850 
    117 H117       31.7020    3.6754   -8.2216 H         1 UNK         0.0810 
    118 H118       30.3511    4.6066   -7.5979 H         1 UNK         0.0810 
    119 H119       30.4707    4.2675   -9.3252 H         1 UNK         0.0810 
    120 H120       28.3325    0.8719   -9.3250 H         1 UNK         0.3040 
    121 H121       29.8981    0.0852  -11.5173 H         1 UNK         0.0766 
    122 H122       27.4168   -0.0973  -11.4346 H         1 UNK         0.0812 
    123 H123       27.5269   -1.3526  -10.1994 H         1 UNK         0.0812 
    124 H124       28.1286   -1.6539  -11.8223 H         1 UNK         0.0812 
    125 H125       29.9077   -1.1778   -8.2412 H         1 UNK         0.3205 
    126 H126       31.3272   -3.6487   -8.9066 H         1 UNK         0.0754 
    127 H127       31.5469   -3.7521   -6.3636 H         1 UNK         0.0769 
    128 H128       29.9058   -3.7048   -6.9601 H         1 UNK         0.0769 
    129 H129       30.6286   -2.2506   -6.2819 H         1 UNK         0.0769 
    130 H130       32.3229   -0.3497   -8.6282 H         1 UNK         0.2981 
    131 H131       35.1528   -1.1391   -8.0772 H         1 UNK         0.0541 
    132 H132       33.0026    0.8719  -10.2088 H         1 UNK         0.3459 
    133 H133       34.2612    1.0981  -11.4066 H         1 UNK         0.3459 
    134 H134       35.4749    1.1990   -7.2442 H         1 UNK         0.0612 
    135 H135       33.7639    1.5027   -7.4052 H         1 UNK         0.0612 
    136 H136       31.9268   -0.0058   -6.1311 H         1 UNK         0.0624 
    137 H137       32.3566    1.4492   -5.2695 H         1 UNK         0.0624 
@<TRIPOS>BOND
     1    1    2 1    
     2    1   72 1    
     3    1   73 1    
     4    1   74 1    
     5    2    3 2    
     6    2    4 am   BACKBONE|DICT|INTERRES
     7    4    5 1    
     8    4   75 1    
     9    5    6 1    
    10    5   35 1    
    11    5   76 1    
    12    6    7 1    
    13    6   77 1    
    14    6   78 1    
    15    7    8 1    
    16    8    9 1    
    17    8   79 1    
    18    8   80 1    
    19    9   10 ar   
    20    9   14 ar   
    21   10   11 ar   
    22   10   81 1    
    23   11   12 ar   
    24   11   71 1    
    25   12   13 ar   
    26   12   82 1    
    27   13   14 ar   
    28   13   15 1    
    29   14   83 1    
    30   15   16 1    
    31   15   84 1    
    32   15   85 1    
    33   16   17 1    
    34   17   18 1    
    35   17   86 1    
    36   17   87 1    
    37   18   19 1    
    38   18   37 1    
    39   18   88 1    
    40   19   20 am   BACKBONE|DICT|INTERRES
    41   19   89 1    
    42   20   21 2    
    43   20   22 1    
    44   22   23 1    
    45   22   24 1    
    46   22   90 1    
    47   23   91 1    
    48   23   92 1    
    49   23   93 1    
    50   24   25 am   BACKBONE|DICT|INTERRES
    51   24   94 1    
    52   25   26 2    
    53   25   27 1    
    54   27   28 1    
    55   27   29 1    
    56   27   95 1    
    57   28   96 1    
    58   28   97 1    
    59   28   98 1    
    60   29   30 am   BACKBONE|DICT|INTERRES
    61   29   99 1    
    62   30   31 2    
    63   30   32 1    
    64   32   33 1    
    65   32   34 1    
    66   32  100 1    
    67   33  101 1    
    68   33  102 1    
    69   33  103 1    
    70   34   35 am   BACKBONE|DICT|INTERRES
    71   34  104 1    
    72   35   36 2    
    73   37   38 2    
    74   37   39 am   BACKBONE|DICT|INTERRES
    75   39   40 1    
    76   39  105 1    
    77   40   41 1    
    78   40   42 1    
    79   40  106 1    
    80   41  107 1    
    81   41  108 1    
    82   41  109 1    
    83   42   43 2    
    84   42   44 am   BACKBONE|DICT|INTERRES
    85   44   45 1    
    86   44  110 1    
    87   45   46 1    
    88   45   47 1    
    89   45  111 1    
    90   46  112 1    
    91   46  113 1    
    92   46  114 1    
    93   47   48 2    
    94   47   49 am   BACKBONE|DICT|INTERRES
    95   49   50 1    
    96   49  115 1    
    97   50   51 1    
    98   50   52 1    
    99   50  116 1    
   100   51  117 1    
   101   51  118 1    
   102   51  119 1    
   103   52   53 2    
   104   52   54 am   BACKBONE|DICT|INTERRES
   105   54   55 1    
   106   54  120 1    
   107   55   56 1    
   108   55   57 1    
   109   55  121 1    
   110   56  122 1    
   111   56  123 1    
   112   56  124 1    
   113   57   58 2    
   114   57   59 am   BACKBONE|DICT|INTERRES
   115   59   60 1    
   116   59  125 1    
   117   60   61 1    
   118   60   62 1    
   119   60  126 1    
   120   61  127 1    
   121   61  128 1    
   122   61  129 1    
   123   62   63 2    
   124   62   64 am   BACKBONE|DICT|INTERRES
   125   64   65 1    
   126   64  130 1    
   127   65   66 1    
   128   65   69 1    
   129   65  131 1    
   130   66   67 am   BACKBONE|DICT|INTERRES
   131   66   68 2    
   132   67  132 1    
   133   67  133 1    
   134   69   70 1    
   135   69  134 1    
   136   69  135 1    
   137   70   71 1    
   138   71  136 1    
   139   71  137 1    
@<TRIPOS>SUBSTRUCTURE
     1 UNK         1 GROUP             0       ****    0 ROOT    
