@<TRIPOS>MOLECULE
3R137
137   139    1
SMALL
USER_CHARGES


@<TRIPOS>ATOM
      1 CA         25.1017   -0.6372    2.2566 C.3       0 UNK        -0.2020 
      2 C          25.5810   -0.8601    0.8307 C.2       0 UNK         0.4855 
      3 O          24.8322   -1.3919    0.0116 O.2       0 UNK        -0.5197 
      4 N          26.8158   -0.4370    0.5197 N.am      1 UNK        -0.4892 
      5 CA         27.4853   -0.5940   -0.7827 C.3       1 UNK         0.0835 
      6 C6         27.8781   -2.0734   -1.0538 C.3       12 UNK        -0.0855 
      7 S7         29.2954   -2.2039   -2.1909 S.3       12 UNK        -0.2931 
      8 C8         29.4470   -4.0041   -2.4337 C.3       12 UNK         0.0378 
      9 C9         30.0824   -4.3326   -3.7814 C.ar      12 UNK        -0.0802 
     10 C10        31.2987   -3.7452   -4.1470 C.ar      12 UNK        -0.0944 
     11 C11        31.8774   -4.0156   -5.3882 C.ar      12 UNK        -0.0787 
     12 C12        31.2461   -4.9053   -6.2602 C.ar      12 UNK        -0.0862 
     13 C13        30.0320   -5.5058   -5.9106 C.ar      12 UNK        -0.0733 
     14 C14        29.4578   -5.2205   -4.6665 C.ar      12 UNK        -0.0832 
     15 C15        29.3560   -6.4665   -6.8840 C.3       12 UNK         0.0240 
     16 S16        27.8225   -5.8038   -7.6252 S.3       12 UNK        -0.2522 
     17 C17        28.3392   -4.1698   -8.2785 C.3       12 UNK        -0.0967 
     18 CA         27.4333   -2.9744   -7.8500 C.3       5 UNK         0.0660 
     19 N          26.6916   -3.2207   -6.6064 N.am      5 UNK        -0.4015 
     20 C          25.8196   -2.4079   -5.9927 C.2       4 UNK         0.4946 
     21 O          25.6113   -1.2384   -6.3259 O.2       4 UNK        -0.5353 
     22 CA         25.0342   -3.0427   -4.8324 C.3       4 UNK         0.0277 
     23 CB         25.9435   -3.8684   -3.9046 C.3       4 UNK        -0.1981 
     24 N          24.3637   -2.0177   -4.0339 N.am      4 UNK        -0.4209 
     25 C          23.0440   -1.9546   -3.8049 C.2       3 UNK         0.4942 
     26 O          22.2331   -2.7458   -4.2899 O.2       3 UNK        -0.5208 
     27 CA         22.5171   -0.8558   -2.8596 C.3       3 UNK         0.0250 
     28 CB         21.8369   -1.4787   -1.6278 C.3       3 UNK        -0.1990 
     29 N          23.5700    0.0563   -2.4088 N.am      3 UNK        -0.4232 
     30 C          23.9249    1.1749   -3.0575 C.2       2 UNK         0.4993 
     31 O          23.3147    1.6122   -4.0331 O.2       2 UNK        -0.5286 
     32 CA         25.1636    1.9446   -2.5538 C.3       2 UNK         0.0209 
     33 CB         24.7422    3.2585   -1.8752 C.3       2 UNK        -0.1931 
     34 N          26.0253    1.1916   -1.6361 N.am      2 UNK        -0.4546 
     35 C          26.7023    0.0750   -1.9434 C.2       1 UNK         0.5154 
     36 O          26.6723   -0.4327   -3.0653 O.2       1 UNK        -0.5181 
     37 C          28.2521   -1.6701   -7.8430 C.2       5 UNK         0.5014 
     38 O          28.3625   -1.0212   -8.8851 O.2       5 UNK        -0.5248 
     39 N          28.7943   -1.3009   -6.6726 N.am      6 UNK        -0.4434 
     40 CA         29.6051   -0.1025   -6.4457 C.3       6 UNK         0.0363 
     41 CB         30.0604   -0.0601   -4.9814 C.3       6 UNK        -0.1936 
     42 C          28.9192    1.2181   -6.8279 C.2       6 UNK         0.5081 
     43 O          29.6224    2.1620   -7.1844 O.2       6 UNK        -0.5248 
     44 N          27.5788    1.2569   -6.8078 N.am      7 UNK        -0.4718 
     45 CA         26.7805    2.3950   -7.2732 C.3       7 UNK         0.0273 
     46 CB         25.3039    2.1447   -6.9369 C.3       7 UNK        -0.1935 
     47 C          26.9415    2.6929   -8.7764 C.2       7 UNK         0.5018 
     48 O          26.7723    3.8455   -9.1765 O.2       7 UNK        -0.5186 
     49 N          27.2674    1.6643   -9.5712 N.am      8 UNK        -0.4240 
     50 CA         27.5488    1.7723  -11.0021 C.3       8 UNK         0.0235 
     51 CB         26.7809    0.6721  -11.7538 C.3       8 UNK        -0.2000 
     52 C          29.0546    1.6608  -11.2802 C.2       8 UNK         0.4941 
     53 O          29.5770    2.4294  -12.0880 O.2       8 UNK        -0.5273 
     54 N          29.7225    0.7000  -10.6263 N.am      9 UNK        -0.4262 
     55 CA         31.1260    0.3556  -10.8618 C.3       9 UNK         0.0264 
     56 CB         31.3804   -1.0693  -10.3426 C.3       9 UNK        -0.1955 
     57 C          32.1395    1.3387  -10.2511 C.2       9 UNK         0.5031 
     58 O          33.2813    1.3617  -10.7122 O.2       9 UNK        -0.5390 
     59 N          31.7348    2.0996   -9.2202 N.am      10 UNK        -0.4204 
     60 CA         32.5532    3.0425   -8.4392 C.3       10 UNK         0.0237 
     61 CB         33.0428    4.2147   -9.3176 C.3       10 UNK        -0.1985 
     62 C          33.6982    2.3753   -7.6445 C.2       10 UNK         0.4970 
     63 O          34.6521    3.0553   -7.2633 O.2       10 UNK        -0.4914 
     64 N          33.5805    1.0653   -7.3946 N.am      11 UNK        -0.4285 
     65 CA         34.5474    0.2346   -6.6605 C.3       11 UNK         0.1007 
     66 C          34.4834    0.3582   -5.1087 C.2       11 UNK         0.5703 
     67 N          33.5704    1.1353   -4.5377 N.am      11 UNK        -0.7361 
     68 O          35.2904   -0.2505   -4.4098 O.2       11 UNK        -0.4986 
     69 C69        34.4948   -1.2389   -7.1486 C.3       12 UNK        -0.0947 
     70 S70        32.8446   -2.0020   -6.9883 S.3       12 UNK        -0.2240 
     71 C71        33.1724   -3.3319   -5.7958 C.3       12 UNK         0.0194 
     72 H72        24.2071   -0.0151    2.2582 H         1 UNK         0.0906 
     73 H73        24.8534   -1.5914    2.7204 H         1 UNK         0.0906 
     74 H74        25.8573   -0.1480    2.8708 H         1 UNK         0.0906 
     75 H75        27.3730    0.0093    1.2365 H         1 UNK         0.3140 
     76 H76        28.4088   -0.0185   -0.6958 H         1 UNK         0.1085 
     77 H77        27.0263   -2.6407   -1.4306 H         1 UNK         0.0836 
     78 H78        28.1717   -2.5594   -0.1220 H         1 UNK         0.0836 
     79 H79        28.4655   -4.4715   -2.3480 H         1 UNK         0.0731 
     80 H80        30.0592   -4.4225   -1.6339 H         1 UNK         0.0731 
     81 H81        31.7841   -3.0555   -3.4699 H         1 UNK         0.1312 
     82 H82        31.6952   -5.1131   -7.2220 H         1 UNK         0.1406 
     83 H83        28.5237   -5.6909   -4.3928 H         1 UNK         0.1631 
     84 H84        29.1201   -7.3956   -6.3632 H         1 UNK         0.0717 
     85 H85        30.0395   -6.7392   -7.6897 H         1 UNK         0.0717 
     86 H86        29.3793   -3.9957   -8.0028 H         1 UNK         0.0934 
     87 H87        28.3549   -4.2353   -9.3679 H         1 UNK         0.0934 
     88 H88        26.6674   -2.8517   -8.6184 H         1 UNK         0.0739 
     89 H89        26.7861   -4.1646   -6.2595 H         1 UNK         0.3093 
     90 H90        24.2993   -3.7144   -5.2803 H         1 UNK         0.0818 
     91 H91        26.2603   -4.7970   -4.3791 H         1 UNK         0.0819 
     92 H92        25.4322   -4.1435   -2.9818 H         1 UNK         0.0819 
     93 H93        26.8382   -3.3068   -3.6388 H         1 UNK         0.0819 
     94 H94        24.9749   -1.2936   -3.6675 H         1 UNK         0.3041 
     95 H95        21.7583   -0.2947   -3.4093 H         1 UNK         0.0784 
     96 H96        20.9821   -2.0897   -1.9206 H         1 UNK         0.0793 
     97 H97        22.5192   -2.1225   -1.0718 H         1 UNK         0.0793 
     98 H98        21.4674   -0.7122   -0.9464 H         1 UNK         0.0793 
     99 H99        24.1178   -0.2526   -1.6118 H         1 UNK         0.3024 
    100 H100       25.7601    2.1887   -3.4357 H         1 UNK         0.1171 
    101 H101       25.6087    3.8599   -1.5994 H         1 UNK         0.0786 
    102 H102       24.1302    3.8658   -2.5439 H         1 UNK         0.0786 
    103 H103       24.1564    3.0765   -0.9733 H         1 UNK         0.0786 
    104 H104       26.0792    1.5281   -0.6853 H         1 UNK         0.2977 
    105 H105       28.6350   -1.8919   -5.8690 H         1 UNK         0.3127 
    106 H106       30.4910   -0.1903   -7.0753 H         1 UNK         0.0770 
    107 H107       29.2098   -0.0356   -4.2994 H         1 UNK         0.0814 
    108 H108       30.6623    0.8267   -4.7813 H         1 UNK         0.0814 
    109 H109       30.6719   -0.9267   -4.7309 H         1 UNK         0.0814 
    110 H110       27.0692    0.4271   -6.5210 H         1 UNK         0.2983 
    111 H111       27.1141    3.2803   -6.7275 H         1 UNK         0.0947 
    112 H112       24.6852    2.9967   -7.2210 H         1 UNK         0.0806 
    113 H113       25.1672    1.9862   -5.8691 H         1 UNK         0.0806 
    114 H114       24.9141    1.2679   -7.4552 H         1 UNK         0.0806 
    115 H115       27.4158    0.7549   -9.1466 H         1 UNK         0.3000 
    116 H116       27.2116    2.7379  -11.3851 H         1 UNK         0.0850 
    117 H117       26.9774    0.7216  -12.8257 H         1 UNK         0.0810 
    118 H118       25.7047    0.7788  -11.6166 H         1 UNK         0.0810 
    119 H119       27.0628   -0.3259  -11.4152 H         1 UNK         0.0810 
    120 H120       29.2079    0.0855   -9.9962 H         1 UNK         0.3040 
    121 H121       31.2970    0.3527  -11.9407 H         1 UNK         0.0766 
    122 H122       30.7626   -1.7977  -10.8682 H         1 UNK         0.0812 
    123 H123       31.1598   -1.1555   -9.2793 H         1 UNK         0.0812 
    124 H124       32.4211   -1.3639  -10.4862 H         1 UNK         0.0812 
    125 H125       30.7798    2.0030   -8.8896 H         1 UNK         0.3205 
    126 H126       31.8854    3.4650   -7.6874 H         1 UNK         0.0754 
    127 H127       33.4976    4.9974   -8.7089 H         1 UNK         0.0769 
    128 H128       32.2179    4.6713   -9.8649 H         1 UNK         0.0769 
    129 H129       33.7908    3.8941  -10.0435 H         1 UNK         0.0769 
    130 H130       32.7646    0.5799   -7.7323 H         1 UNK         0.2981 
    131 H131       35.5408    0.6039   -6.9216 H         1 UNK         0.0541 
    132 H132       32.9214    1.6587   -5.1008 H         1 UNK         0.3459 
    133 H133       33.5478    1.2106   -3.5332 H         1 UNK         0.3459 
    134 H134       35.2413   -1.8466   -6.6336 H         1 UNK         0.0612 
    135 H135       34.7689   -1.2779   -8.2040 H         1 UNK         0.0612 
    136 H136       33.8530   -4.0589   -6.2399 H         1 UNK         0.0624 
    137 H137       33.6792   -2.9177   -4.9230 H         1 UNK         0.0624 
@<TRIPOS>BOND
     1    1    2 1    
     2    1   72 1    
     3    1   73 1    
     4    1   74 1    
     5    2    3 2    
     6    2    4 am   BACKBONE|DICT|INTERRES
     7    4    5 1    
     8    4   75 1    
     9    5    6 1    
    10    5   35 1    
    11    5   76 1    
    12    6    7 1    
    13    6   77 1    
    14    6   78 1    
    15    7    8 1    
    16    8    9 1    
    17    8   79 1    
    18    8   80 1    
    19    9   10 ar   
    20    9   14 ar   
    21   10   11 ar   
    22   10   81 1    
    23   11   12 ar   
    24   11   71 1    
    25   12   13 ar   
    26   12   82 1    
    27   13   14 ar   
    28   13   15 1    
    29   14   83 1    
    30   15   16 1    
    31   15   84 1    
    32   15   85 1    
    33   16   17 1    
    34   17   18 1    
    35   17   86 1    
    36   17   87 1    
    37   18   19 1    
    38   18   37 1    
    39   18   88 1    
    40   19   20 am   BACKBONE|DICT|INTERRES
    41   19   89 1    
    42   20   21 2    
    43   20   22 1    
    44   22   23 1    
    45   22   24 1    
    46   22   90 1    
    47   23   91 1    
    48   23   92 1    
    49   23   93 1    
    50   24   25 am   BACKBONE|DICT|INTERRES
    51   24   94 1    
    52   25   26 2    
    53   25   27 1    
    54   27   28 1    
    55   27   29 1    
    56   27   95 1    
    57   28   96 1    
    58   28   97 1    
    59   28   98 1    
    60   29   30 am   BACKBONE|DICT|INTERRES
    61   29   99 1    
    62   30   31 2    
    63   30   32 1    
    64   32   33 1    
    65   32   34 1    
    66   32  100 1    
    67   33  101 1    
    68   33  102 1    
    69   33  103 1    
    70   34   35 am   BACKBONE|DICT|INTERRES
    71   34  104 1    
    72   35   36 2    
    73   37   38 2    
    74   37   39 am   BACKBONE|DICT|INTERRES
    75   39   40 1    
    76   39  105 1    
    77   40   41 1    
    78   40   42 1    
    79   40  106 1    
    80   41  107 1    
    81   41  108 1    
    82   41  109 1    
    83   42   43 2    
    84   42   44 am   BACKBONE|DICT|INTERRES
    85   44   45 1    
    86   44  110 1    
    87   45   46 1    
    88   45   47 1    
    89   45  111 1    
    90   46  112 1    
    91   46  113 1    
    92   46  114 1    
    93   47   48 2    
    94   47   49 am   BACKBONE|DICT|INTERRES
    95   49   50 1    
    96   49  115 1    
    97   50   51 1    
    98   50   52 1    
    99   50  116 1    
   100   51  117 1    
   101   51  118 1    
   102   51  119 1    
   103   52   53 2    
   104   52   54 am   BACKBONE|DICT|INTERRES
   105   54   55 1    
   106   54  120 1    
   107   55   56 1    
   108   55   57 1    
   109   55  121 1    
   110   56  122 1    
   111   56  123 1    
   112   56  124 1    
   113   57   58 2    
   114   57   59 am   BACKBONE|DICT|INTERRES
   115   59   60 1    
   116   59  125 1    
   117   60   61 1    
   118   60   62 1    
   119   60  126 1    
   120   61  127 1    
   121   61  128 1    
   122   61  129 1    
   123   62   63 2    
   124   62   64 am   BACKBONE|DICT|INTERRES
   125   64   65 1    
   126   64  130 1    
   127   65   66 1    
   128   65   69 1    
   129   65  131 1    
   130   66   67 am   BACKBONE|DICT|INTERRES
   131   66   68 2    
   132   67  132 1    
   133   67  133 1    
   134   69   70 1    
   135   69  134 1    
   136   69  135 1    
   137   70   71 1    
   138   71  136 1    
   139   71  137 1    
@<TRIPOS>SUBSTRUCTURE
     1 UNK         1 GROUP             0       ****    0 ROOT    
