@<TRIPOS>MOLECULE
3R137
137   139    1
SMALL
USER_CHARGES


@<TRIPOS>ATOM
      1 CA         29.2360    0.6628   -0.3100 C.3       0 UNK        -0.2020 
      2 C          28.4739   -0.6510   -0.3916 C.2       0 UNK         0.4855 
      3 O          27.7286   -0.9842    0.5300 O.2       0 UNK        -0.5197 
      4 N          28.6536   -1.3957   -1.4911 N.am      1 UNK        -0.4892 
      5 CA         28.0457   -2.6965   -1.7980 C.3       1 UNK         0.0835 
      6 C6         28.4074   -3.7945   -0.7556 C.3       12 UNK        -0.0855 
      7 S7         28.5427   -5.4620   -1.4824 S.3       12 UNK        -0.2931 
      8 C8         30.3218   -5.5461   -1.8867 C.3       12 UNK         0.0378 
      9 C9         30.6556   -4.6300   -3.0539 C.ar      12 UNK        -0.0802 
     10 C10        31.2874   -3.3995   -2.8412 C.ar      12 UNK        -0.0944 
     11 C11        31.4927   -2.5096   -3.9024 C.ar      12 UNK        -0.0787 
     12 C12        31.0635   -2.8760   -5.1841 C.ar      12 UNK        -0.0862 
     13 C13        30.4567   -4.1140   -5.4144 C.ar      12 UNK        -0.0733 
     14 C14        30.2712   -4.9940   -4.3464 C.ar      12 UNK        -0.0832 
     15 C15        29.9900   -4.4828   -6.8186 C.3       12 UNK         0.0240 
     16 S16        28.2473   -5.0268   -6.9145 S.3       12 UNK        -0.2522 
     17 C17        27.3386   -3.7703   -5.9507 C.3       12 UNK        -0.0967 
     18 CA         26.9060   -2.5341   -6.7787 C.3       5 UNK         0.0660 
     19 N          25.6203   -1.9898   -6.3266 N.am      5 UNK        -0.4015 
     20 C          24.9038   -1.0940   -7.0228 C.2       4 UNK         0.4946 
     21 O          25.2489   -0.6376   -8.1132 O.2       4 UNK        -0.5353 
     22 CA         23.6015   -0.5923   -6.3824 C.3       4 UNK         0.0277 
     23 CB         22.5050   -1.6674   -6.4523 C.3       4 UNK        -0.1981 
     24 N          23.7659   -0.1463   -4.9982 N.am      4 UNK        -0.4209 
     25 C          24.5600    0.8486   -4.5850 C.2       3 UNK         0.4942 
     26 O          25.3050    1.4790   -5.3337 O.2       3 UNK        -0.5208 
     27 CA         24.5356    1.2024   -3.0860 C.3       3 UNK         0.0250 
     28 CB         23.3126    2.0743   -2.7425 C.3       3 UNK        -0.1990 
     29 N          24.6506    0.0477   -2.1829 N.am      3 UNK        -0.4232 
     30 C          23.8064   -0.9810   -2.0067 C.2       2 UNK         0.4993 
     31 O          22.7188   -1.0806   -2.5784 O.2       2 UNK        -0.5286 
     32 CA         24.2824   -2.1027   -1.0607 C.3       2 UNK         0.0209 
     33 CB         23.5812   -3.4488   -1.3421 C.3       2 UNK        -0.1931 
     34 N          25.7425   -2.2797   -1.0517 N.am      2 UNK        -0.4546 
     35 C          26.5358   -2.5788   -2.0913 C.2       1 UNK         0.5154 
     36 O          26.1321   -2.6940   -3.2503 O.2       1 UNK        -0.5181 
     37 C          27.9961   -1.4459   -6.7805 C.2       5 UNK         0.5014 
     38 O          28.7911   -1.3797   -7.7191 O.2       5 UNK        -0.5248 
     39 N          27.9817   -0.5880   -5.7473 N.am      6 UNK        -0.4434 
     40 CA         28.8850    0.5529   -5.5968 C.3       6 UNK         0.0363 
     41 CB         28.6500    1.2435   -4.2450 C.3       6 UNK        -0.1936 
     42 C          28.7747    1.5546   -6.7542 C.2       6 UNK         0.5081 
     43 O          29.8043    1.9753   -7.2837 O.2       6 UNK        -0.5248 
     44 N          27.5367    1.8849   -7.1422 N.am      7 UNK        -0.4718 
     45 CA         27.2279    2.7274   -8.2952 C.3       7 UNK         0.0273 
     46 CB         25.7391    3.1091   -8.2691 C.3       7 UNK        -0.1935 
     47 C          27.5989    2.0584   -9.6277 C.2       7 UNK         0.5018 
     48 O          28.2369    2.7017  -10.4613 O.2       7 UNK        -0.5186 
     49 N          27.2084    0.7861   -9.8009 N.am      8 UNK        -0.4240 
     50 CA         27.4298    0.0077  -11.0239 C.3       8 UNK         0.0235 
     51 CB         26.6908   -1.3366  -10.9295 C.3       8 UNK        -0.2000 
     52 C          28.9129   -0.2188  -11.3564 C.2       8 UNK         0.4941 
     53 O          29.2997   -0.0625  -12.5153 O.2       8 UNK        -0.5273 
     54 N          29.7150   -0.5763  -10.3449 N.am      9 UNK        -0.4262 
     55 CA         31.1479   -0.8431  -10.4967 C.3       9 UNK         0.0264 
     56 CB         31.5841   -1.8392   -9.4096 C.3       9 UNK        -0.1955 
     57 C          32.0253    0.4206  -10.4465 C.2       9 UNK         0.5031 
     58 O          33.2233    0.3102  -10.7118 O.2       9 UNK        -0.5390 
     59 N          31.4460    1.5731  -10.0687 N.am      10 UNK        -0.4204 
     60 CA         32.1304    2.8287   -9.7164 C.3       10 UNK         0.0237 
     61 CB         32.8085    3.4667  -10.9475 C.3       10 UNK        -0.1985 
     62 C          33.0872    2.6397   -8.5185 C.2       10 UNK         0.4970 
     63 O          34.1942    3.1806   -8.4998 O.2       10 UNK        -0.4914 
     64 N          32.6234    1.8403   -7.5553 N.am      11 UNK        -0.4285 
     65 CA         33.3083    1.4376   -6.3236 C.3       11 UNK         0.1007 
     66 C          32.9037    2.3371   -5.1184 C.2       11 UNK         0.5703 
     67 N          31.7672    3.0250   -5.1601 N.am      11 UNK        -0.7361 
     68 O          33.6492    2.4474   -4.1487 O.2       11 UNK        -0.4986 
     69 C69        33.0405   -0.0777   -6.1021 C.3       12 UNK        -0.0947 
     70 S70        33.6643   -0.8436   -4.5642 S.3       12 UNK        -0.2240 
     71 C71        32.1197   -1.1401   -3.6361 C.3       12 UNK         0.0194 
     72 H72        29.7932    0.7131    0.6267 H         1 UNK         0.0906 
     73 H73        29.9458    0.7791   -1.1306 H         1 UNK         0.0906 
     74 H74        28.5399    1.5027   -0.3380 H         1 UNK         0.0906 
     75 H75        29.2832   -1.0568   -2.2034 H         1 UNK         0.3140 
     76 H76        28.4955   -2.9813   -2.7486 H         1 UNK         0.1085 
     77 H77        29.3637   -3.5624   -0.2845 H         1 UNK         0.0836 
     78 H78        27.6902   -3.8251    0.0662 H         1 UNK         0.0836 
     79 H79        30.9167   -5.2961   -1.0068 H         1 UNK         0.0731 
     80 H80        30.5786   -6.5740   -2.1473 H         1 UNK         0.0731 
     81 H81        31.5826   -3.1191   -1.8392 H         1 UNK         0.1312 
     82 H82        31.1905   -2.2022   -6.0152 H         1 UNK         0.1406 
     83 H83        29.7806   -5.9437   -4.5129 H         1 UNK         0.1631 
     84 H84        30.1208   -3.6426   -7.4989 H         1 UNK         0.0717 
     85 H85        30.6263   -5.2819   -7.2008 H         1 UNK         0.0717 
     86 H86        26.4539   -4.2845   -5.5716 H         1 UNK         0.0934 
     87 H87        27.8970   -3.4904   -5.0575 H         1 UNK         0.0934 
     88 H88        26.7608   -2.8492   -7.8142 H         1 UNK         0.0739 
     89 H89        25.2974   -2.2844   -5.4133 H         1 UNK         0.3093 
     90 H90        23.2669    0.2705   -6.9623 H         1 UNK         0.0818 
     91 H91        21.5470   -1.2772   -6.1081 H         1 UNK         0.0819 
     92 H92        22.3626   -2.0148   -7.4766 H         1 UNK         0.0819 
     93 H93        22.7490   -2.5377   -5.8417 H         1 UNK         0.0819 
     94 H94        23.2034   -0.6073   -4.2851 H         1 UNK         0.3041 
     95 H95        25.4241    1.8075   -2.8985 H         1 UNK         0.0784 
     96 H96        23.2935    2.9749   -3.3579 H         1 UNK         0.0793 
     97 H97        22.3722    1.5489   -2.9109 H         1 UNK         0.0793 
     98 H98        23.3350    2.3947   -1.7009 H         1 UNK         0.0793 
     99 H99        25.5186   -0.0011   -1.6686 H         1 UNK         0.3024 
    100 H100       24.0010   -1.7853   -0.0553 H         1 UNK         0.1171 
    101 H101       23.9215   -4.2243   -0.6560 H         1 UNK         0.0786 
    102 H102       22.5009   -3.3623   -1.2201 H         1 UNK         0.0786 
    103 H103       23.7664   -3.7961   -2.3591 H         1 UNK         0.0786 
    104 H104       26.2120   -2.0811   -0.1722 H         1 UNK         0.2977 
    105 H105       27.2626   -0.6990   -5.0481 H         1 UNK         0.3127 
    106 H106       29.8979    0.1573   -5.6021 H         1 UNK         0.0770 
    107 H107       27.6551    1.6813   -4.1758 H         1 UNK         0.0814 
    108 H108       29.3655    2.0510   -4.0893 H         1 UNK         0.0814 
    109 H109       28.7677    0.5481   -3.4184 H         1 UNK         0.0814 
    110 H110       26.7454    1.5362   -6.6061 H         1 UNK         0.2983 
    111 H111       27.8166    3.6435   -8.2090 H         1 UNK         0.0947 
    112 H112       25.4821    3.7441   -9.1179 H         1 UNK         0.0806 
    113 H113       25.4892    3.6608   -7.3626 H         1 UNK         0.0806 
    114 H114       25.0951    2.2294   -8.3093 H         1 UNK         0.0806 
    115 H115       26.6621    0.3368   -9.0699 H         1 UNK         0.3000 
    116 H116       26.9942    0.5732  -11.8503 H         1 UNK         0.0850 
    117 H117       26.8333   -1.9273  -11.8354 H         1 UNK         0.0810 
    118 H118       25.6177   -1.1909  -10.8043 H         1 UNK         0.0810 
    119 H119       27.0476   -1.9337  -10.0897 H         1 UNK         0.0810 
    120 H120       29.3149   -0.7270   -9.4196 H         1 UNK         0.3040 
    121 H121       31.3212   -1.3139  -11.4669 H         1 UNK         0.0766 
    122 H122       31.0349   -2.7762   -9.4961 H         1 UNK         0.0812 
    123 H123       31.4185   -1.4400   -8.4090 H         1 UNK         0.0812 
    124 H124       32.6448   -2.0790   -9.4942 H         1 UNK         0.0812 
    125 H125       30.4503    1.5568   -9.8881 H         1 UNK         0.3205 
    126 H126       31.3509    3.5131   -9.3776 H         1 UNK         0.0754 
    127 H127       33.1967    4.4574  -10.7080 H         1 UNK         0.0769 
    128 H128       32.1031    3.5854  -11.7699 H         1 UNK         0.0769 
    129 H129       33.6465    2.8692  -11.3073 H         1 UNK         0.0769 
    130 H130       31.6509    1.5576   -7.6238 H         1 UNK         0.2981 
    131 H131       34.3836    1.5666   -6.4582 H         1 UNK         0.0541 
    132 H132       31.1490    2.9464   -5.9561 H         1 UNK         0.3459 
    133 H133       31.5302    3.6289   -4.3898 H         1 UNK         0.3459 
    134 H134       31.9708   -0.2487   -6.1705 H         1 UNK         0.0612 
    135 H135       33.4741   -0.6389   -6.9313 H         1 UNK         0.0612 
    136 H136       31.3975   -0.3531   -3.8520 H         1 UNK         0.0624 
    137 H137       32.3551   -1.0387   -2.5757 H         1 UNK         0.0624 
@<TRIPOS>BOND
     1    1    2 1    
     2    1   72 1    
     3    1   73 1    
     4    1   74 1    
     5    2    3 2    
     6    2    4 am   BACKBONE|DICT|INTERRES
     7    4    5 1    
     8    4   75 1    
     9    5    6 1    
    10    5   35 1    
    11    5   76 1    
    12    6    7 1    
    13    6   77 1    
    14    6   78 1    
    15    7    8 1    
    16    8    9 1    
    17    8   79 1    
    18    8   80 1    
    19    9   10 ar   
    20    9   14 ar   
    21   10   11 ar   
    22   10   81 1    
    23   11   12 ar   
    24   11   71 1    
    25   12   13 ar   
    26   12   82 1    
    27   13   14 ar   
    28   13   15 1    
    29   14   83 1    
    30   15   16 1    
    31   15   84 1    
    32   15   85 1    
    33   16   17 1    
    34   17   18 1    
    35   17   86 1    
    36   17   87 1    
    37   18   19 1    
    38   18   37 1    
    39   18   88 1    
    40   19   20 am   BACKBONE|DICT|INTERRES
    41   19   89 1    
    42   20   21 2    
    43   20   22 1    
    44   22   23 1    
    45   22   24 1    
    46   22   90 1    
    47   23   91 1    
    48   23   92 1    
    49   23   93 1    
    50   24   25 am   BACKBONE|DICT|INTERRES
    51   24   94 1    
    52   25   26 2    
    53   25   27 1    
    54   27   28 1    
    55   27   29 1    
    56   27   95 1    
    57   28   96 1    
    58   28   97 1    
    59   28   98 1    
    60   29   30 am   BACKBONE|DICT|INTERRES
    61   29   99 1    
    62   30   31 2    
    63   30   32 1    
    64   32   33 1    
    65   32   34 1    
    66   32  100 1    
    67   33  101 1    
    68   33  102 1    
    69   33  103 1    
    70   34   35 am   BACKBONE|DICT|INTERRES
    71   34  104 1    
    72   35   36 2    
    73   37   38 2    
    74   37   39 am   BACKBONE|DICT|INTERRES
    75   39   40 1    
    76   39  105 1    
    77   40   41 1    
    78   40   42 1    
    79   40  106 1    
    80   41  107 1    
    81   41  108 1    
    82   41  109 1    
    83   42   43 2    
    84   42   44 am   BACKBONE|DICT|INTERRES
    85   44   45 1    
    86   44  110 1    
    87   45   46 1    
    88   45   47 1    
    89   45  111 1    
    90   46  112 1    
    91   46  113 1    
    92   46  114 1    
    93   47   48 2    
    94   47   49 am   BACKBONE|DICT|INTERRES
    95   49   50 1    
    96   49  115 1    
    97   50   51 1    
    98   50   52 1    
    99   50  116 1    
   100   51  117 1    
   101   51  118 1    
   102   51  119 1    
   103   52   53 2    
   104   52   54 am   BACKBONE|DICT|INTERRES
   105   54   55 1    
   106   54  120 1    
   107   55   56 1    
   108   55   57 1    
   109   55  121 1    
   110   56  122 1    
   111   56  123 1    
   112   56  124 1    
   113   57   58 2    
   114   57   59 am   BACKBONE|DICT|INTERRES
   115   59   60 1    
   116   59  125 1    
   117   60   61 1    
   118   60   62 1    
   119   60  126 1    
   120   61  127 1    
   121   61  128 1    
   122   61  129 1    
   123   62   63 2    
   124   62   64 am   BACKBONE|DICT|INTERRES
   125   64   65 1    
   126   64  130 1    
   127   65   66 1    
   128   65   69 1    
   129   65  131 1    
   130   66   67 am   BACKBONE|DICT|INTERRES
   131   66   68 2    
   132   67  132 1    
   133   67  133 1    
   134   69   70 1    
   135   69  134 1    
   136   69  135 1    
   137   70   71 1    
   138   71  136 1    
   139   71  137 1    
@<TRIPOS>SUBSTRUCTURE
     1 UNK         1 GROUP             0       ****    0 ROOT    
