@<TRIPOS>MOLECULE
3R137
137   139    1
SMALL
USER_CHARGES


@<TRIPOS>ATOM
      1 CA         29.5400   -7.3822   -0.0420 C.3       0 UNK        -0.2020 
      2 C          28.5271   -6.5924   -0.8585 C.2       0 UNK         0.4855 
      3 O          27.3908   -7.0417   -1.0028 O.2       0 UNK        -0.5197 
      4 N          28.9506   -5.4371   -1.3919 N.am      1 UNK        -0.4892 
      5 CA         28.1828   -4.4514   -2.1635 C.3       1 UNK         0.0835 
      6 C6         27.4815   -5.0352   -3.4244 C.3       12 UNK        -0.0855 
      7 S7         26.6029   -3.7926   -4.4405 S.3       12 UNK        -0.2931 
      8 C8         27.8822   -3.3052   -5.6393 C.3       12 UNK         0.0378 
      9 C9         29.0399   -2.5657   -4.9814 C.ar      12 UNK        -0.0802 
     10 C10        30.3397   -3.0649   -5.0761 C.ar      12 UNK        -0.0944 
     11 C11        31.4090   -2.3860   -4.4828 C.ar      12 UNK        -0.0787 
     12 C12        31.1635   -1.1980   -3.7867 C.ar      12 UNK        -0.0862 
     13 C13        29.8666   -0.6858   -3.6698 C.ar      12 UNK        -0.0733 
     14 C14        28.8114   -1.3850   -4.2713 C.ar      12 UNK        -0.0832 
     15 C15        29.6632    0.5952   -2.8535 C.3       12 UNK         0.0240 
     16 S16        27.9699    1.2849   -2.8475 S.3       12 UNK        -0.2522 
     17 C17        27.9327    2.2752   -4.3764 C.3       12 UNK        -0.0967 
     18 CA         27.4630    1.4824   -5.6194 C.3       5 UNK         0.0660 
     19 N          26.1907    0.7705   -5.4218 N.am      5 UNK        -0.4015 
     20 C          25.6662   -0.0921   -6.3046 C.2       4 UNK         0.4946 
     21 O          26.1935   -0.3485   -7.3904 O.2       4 UNK        -0.5353 
     22 CA         24.3350   -0.7551   -5.9227 C.3       4 UNK         0.0277 
     23 CB         23.9610   -1.9218   -6.8580 C.3       4 UNK        -0.1981 
     24 N          24.3364   -1.2328   -4.5359 N.am      4 UNK        -0.4209 
     25 C          23.2941   -1.1124   -3.7017 C.2       3 UNK         0.4942 
     26 O          22.2870   -0.4500   -3.9560 O.2       3 UNK        -0.5208 
     27 CA         23.3485   -1.8907   -2.3761 C.3       3 UNK         0.0250 
     28 CB         22.8023   -3.3139   -2.5765 C.3       3 UNK        -0.1990 
     29 N          24.6801   -1.9748   -1.7769 N.am      3 UNK        -0.4232 
     30 C          25.3201   -0.9683   -1.1705 C.2       2 UNK         0.4993 
     31 O          24.8729    0.1770   -1.1085 O.2       2 UNK        -0.5286 
     32 CA         26.6818   -1.2754   -0.5129 C.3       2 UNK         0.0209 
     33 CB         26.5175   -1.5583    0.9939 C.3       2 UNK        -0.1931 
     34 N          27.4728   -2.3238   -1.1816 N.am      2 UNK        -0.4546 
     35 C          27.2279   -3.6411   -1.2619 C.2       1 UNK         0.5154 
     36 O          26.2636   -4.1886   -0.7253 O.2       1 UNK        -0.5181 
     37 C          27.4604    2.3943   -6.8589 C.2       5 UNK         0.5014 
     38 O          28.4980    2.5085   -7.5083 O.2       5 UNK        -0.5248 
     39 N          26.3061    2.9907   -7.1887 N.am      6 UNK        -0.4434 
     40 CA         26.1173    3.8189   -8.3826 C.3       6 UNK         0.0363 
     41 CB         24.7638    4.5417   -8.2928 C.3       6 UNK        -0.1936 
     42 C          26.2174    3.0271   -9.6995 C.2       6 UNK         0.5081 
     43 O          26.6594    3.5878  -10.7021 O.2       6 UNK        -0.5248 
     44 N          25.8185    1.7471   -9.6788 N.am      7 UNK        -0.4718 
     45 CA         25.9091    0.8422  -10.8266 C.3       7 UNK         0.0273 
     46 CB         24.8679   -0.2799  -10.6870 C.3       7 UNK        -0.1935 
     47 C          27.3211    0.2567  -10.9679 C.2       7 UNK         0.5018 
     48 O          27.8349    0.1755  -12.0839 O.2       7 UNK        -0.5186 
     49 N          27.9265   -0.1254   -9.8344 N.am      8 UNK        -0.4240 
     50 CA         29.2802   -0.6833   -9.7654 C.3       8 UNK         0.0235 
     51 CB         29.4320   -1.4440   -8.4371 C.3       8 UNK        -0.2000 
     52 C          30.4009    0.3629   -9.9096 C.2       8 UNK         0.4941 
     53 O          31.5584   -0.0306  -10.0578 O.2       8 UNK        -0.5273 
     54 N          30.0627    1.6567   -9.7930 N.am      9 UNK        -0.4262 
     55 CA         30.9703    2.8079   -9.6659 C.3       9 UNK         0.0264 
     56 CB         31.7638    3.0364  -10.9697 C.3       9 UNK        -0.1955 
     57 C          31.8712    2.6939   -8.4172 C.2       9 UNK         0.5031 
     58 O          33.0498    3.0488   -8.4678 O.2       9 UNK        -0.5390 
     59 N          31.2869    2.1575   -7.3336 N.am      10 UNK        -0.4204 
     60 CA         31.9174    1.7230   -6.0816 C.3       10 UNK         0.0237 
     61 CB         32.3208    2.9427   -5.2282 C.3       10 UNK        -0.1985 
     62 C          33.0756    0.7270   -6.3106 C.2       10 UNK         0.4970 
     63 O          34.1417    0.8786   -5.7118 O.2       10 UNK        -0.4914 
     64 N          32.8385   -0.2545   -7.1936 N.am      11 UNK        -0.4285 
     65 CA         33.8302   -1.1811   -7.7614 C.3       11 UNK         0.1007 
     66 C          34.8696   -0.4283   -8.6384 C.2       11 UNK         0.5703 
     67 N          34.4196    0.1963   -9.7184 N.am      11 UNK        -0.7361 
     68 O          36.0668   -0.4094   -8.3589 O.2       11 UNK        -0.4986 
     69 C69        34.4656   -2.1485   -6.7218 C.3       12 UNK        -0.0947 
     70 S70        33.3209   -3.4711   -6.2120 S.3       12 UNK        -0.2240 
     71 C71        32.8170   -2.9687   -4.5332 C.3       12 UNK         0.0194 
     72 H72        29.6828   -8.3712   -0.4768 H         1 UNK         0.0906 
     73 H73        30.5105   -6.8879   -0.0008 H         1 UNK         0.0906 
     74 H74        29.1811   -7.5084    0.9792 H         1 UNK         0.0906 
     75 H75        29.9042   -5.1579   -1.2041 H         1 UNK         0.3140 
     76 H76        28.9435   -3.7597   -2.5252 H         1 UNK         0.1085 
     77 H77        26.7442   -5.7859   -3.1379 H         1 UNK         0.0836 
     78 H78        28.2099   -5.5563   -4.0473 H         1 UNK         0.0836 
     79 H79        28.2303   -4.1894   -6.1755 H         1 UNK         0.0731 
     80 H80        27.4265   -2.6540   -6.3852 H         1 UNK         0.0731 
     81 H81        30.5214   -3.9897   -5.6064 H         1 UNK         0.1312 
     82 H82        31.9858   -0.6781   -3.3134 H         1 UNK         0.1406 
     83 H83        27.7958   -1.0328   -4.1843 H         1 UNK         0.1631 
     84 H84        30.3626    1.3624   -3.1878 H         1 UNK         0.0717 
     85 H85        29.9297    0.3766   -1.8186 H         1 UNK         0.0717 
     86 H86        28.9229    2.7039   -4.5445 H         1 UNK         0.0934 
     87 H87        27.2693    3.1234   -4.1957 H         1 UNK         0.0934 
     88 H88        28.2170    0.7226   -5.8270 H         1 UNK         0.0739 
     89 H89        25.7101    0.9349   -4.5482 H         1 UNK         0.3093 
     90 H90        23.5802    0.0239   -6.0474 H         1 UNK         0.0818 
     91 H91        23.0053   -2.3649   -6.5781 H         1 UNK         0.0819 
     92 H92        23.8658   -1.5840   -7.8898 H         1 UNK         0.0819 
     93 H93        24.7143   -2.7103   -6.8379 H         1 UNK         0.0819 
     94 H94        25.1189   -1.8110   -4.2562 H         1 UNK         0.3041 
     95 H95        22.6955   -1.3753   -1.6683 H         1 UNK         0.0784 
     96 H96        21.7976   -3.2919   -3.0011 H         1 UNK         0.0793 
     97 H97        23.4304   -3.8958   -3.2529 H         1 UNK         0.0793 
     98 H98        22.7413   -3.8522   -1.6304 H         1 UNK         0.0793 
     99 H99        25.1019   -2.8956   -1.7131 H         1 UNK         0.3024 
    100 H100       27.2712   -0.3620   -0.5967 H         1 UNK         0.1171 
    101 H101       27.4816   -1.7264    1.4738 H         1 UNK         0.0786 
    102 H102       25.8906   -2.4298    1.1834 H         1 UNK         0.0786 
    103 H103       26.0490   -0.7115    1.4971 H         1 UNK         0.0786 
    104 H104       28.2734   -1.9732   -1.6895 H         1 UNK         0.2977 
    105 H105       25.5005    2.8493   -6.5971 H         1 UNK         0.3127 
    106 H106       26.9070    4.5736   -8.3946 H         1 UNK         0.0770 
    107 H107       23.9304    3.8389   -8.2583 H         1 UNK         0.0814 
    108 H108       24.6092    5.1871   -9.1588 H         1 UNK         0.0814 
    109 H109       24.7087    5.1745   -7.4068 H         1 UNK         0.0814 
    110 H110       25.5208    1.3406   -8.8021 H         1 UNK         0.2983 
    111 H111       25.6829    1.4004  -11.7382 H         1 UNK         0.0947 
    112 H112       24.8729   -0.9243  -11.5670 H         1 UNK         0.0806 
    113 H113       23.8598    0.1220  -10.5852 H         1 UNK         0.0806 
    114 H114       25.0679   -0.9128   -9.8224 H         1 UNK         0.0806 
    115 H115       27.4028   -0.0741   -8.9646 H         1 UNK         0.3000 
    116 H116       29.4025   -1.3977  -10.5824 H         1 UNK         0.0850 
    117 H117       30.4193   -1.8994   -8.3483 H         1 UNK         0.0810 
    118 H118       28.7036   -2.2512   -8.3680 H         1 UNK         0.0810 
    119 H119       29.2911   -0.7908   -7.5751 H         1 UNK         0.0810 
    120 H120       29.0899    1.8605   -9.6020 H         1 UNK         0.3040 
    121 H121       30.3358    3.6809   -9.5053 H         1 UNK         0.0766 
    122 H122       32.3363    3.9633  -10.9197 H         1 UNK         0.0812 
    123 H123       31.0988    3.1122  -11.8299 H         1 UNK         0.0812 
    124 H124       32.4714    2.2297  -11.1623 H         1 UNK         0.0812 
    125 H125       30.2790    2.0255   -7.3965 H         1 UNK         0.3205 
    126 H126       31.1505    1.1752   -5.5346 H         1 UNK         0.0754 
    127 H127       32.6945    2.6316   -4.2518 H         1 UNK         0.0769 
    128 H128       31.4710    3.6026   -5.0540 H         1 UNK         0.0769 
    129 H129       33.1065    3.5273   -5.7081 H         1 UNK         0.0769 
    130 H130       31.9490   -0.2552   -7.6687 H         1 UNK         0.2981 
    131 H131       33.2775   -1.8017   -8.4685 H         1 UNK         0.0541 
    132 H132       35.0612    0.7022  -10.3066 H         1 UNK         0.3459 
    133 H133       33.4258    0.1808   -9.9353 H         1 UNK         0.3459 
    134 H134       34.8568   -1.6146   -5.8562 H         1 UNK         0.0612 
    135 H135       35.3245   -2.6592   -7.1604 H         1 UNK         0.0612 
    136 H136       32.8405   -3.8515   -3.8932 H         1 UNK         0.0624 
    137 H137       33.5449   -2.2727   -4.1149 H         1 UNK         0.0624 
@<TRIPOS>BOND
     1    1    2 1    
     2    1   72 1    
     3    1   73 1    
     4    1   74 1    
     5    2    3 2    
     6    2    4 am   BACKBONE|DICT|INTERRES
     7    4    5 1    
     8    4   75 1    
     9    5    6 1    
    10    5   35 1    
    11    5   76 1    
    12    6    7 1    
    13    6   77 1    
    14    6   78 1    
    15    7    8 1    
    16    8    9 1    
    17    8   79 1    
    18    8   80 1    
    19    9   10 ar   
    20    9   14 ar   
    21   10   11 ar   
    22   10   81 1    
    23   11   12 ar   
    24   11   71 1    
    25   12   13 ar   
    26   12   82 1    
    27   13   14 ar   
    28   13   15 1    
    29   14   83 1    
    30   15   16 1    
    31   15   84 1    
    32   15   85 1    
    33   16   17 1    
    34   17   18 1    
    35   17   86 1    
    36   17   87 1    
    37   18   19 1    
    38   18   37 1    
    39   18   88 1    
    40   19   20 am   BACKBONE|DICT|INTERRES
    41   19   89 1    
    42   20   21 2    
    43   20   22 1    
    44   22   23 1    
    45   22   24 1    
    46   22   90 1    
    47   23   91 1    
    48   23   92 1    
    49   23   93 1    
    50   24   25 am   BACKBONE|DICT|INTERRES
    51   24   94 1    
    52   25   26 2    
    53   25   27 1    
    54   27   28 1    
    55   27   29 1    
    56   27   95 1    
    57   28   96 1    
    58   28   97 1    
    59   28   98 1    
    60   29   30 am   BACKBONE|DICT|INTERRES
    61   29   99 1    
    62   30   31 2    
    63   30   32 1    
    64   32   33 1    
    65   32   34 1    
    66   32  100 1    
    67   33  101 1    
    68   33  102 1    
    69   33  103 1    
    70   34   35 am   BACKBONE|DICT|INTERRES
    71   34  104 1    
    72   35   36 2    
    73   37   38 2    
    74   37   39 am   BACKBONE|DICT|INTERRES
    75   39   40 1    
    76   39  105 1    
    77   40   41 1    
    78   40   42 1    
    79   40  106 1    
    80   41  107 1    
    81   41  108 1    
    82   41  109 1    
    83   42   43 2    
    84   42   44 am   BACKBONE|DICT|INTERRES
    85   44   45 1    
    86   44  110 1    
    87   45   46 1    
    88   45   47 1    
    89   45  111 1    
    90   46  112 1    
    91   46  113 1    
    92   46  114 1    
    93   47   48 2    
    94   47   49 am   BACKBONE|DICT|INTERRES
    95   49   50 1    
    96   49  115 1    
    97   50   51 1    
    98   50   52 1    
    99   50  116 1    
   100   51  117 1    
   101   51  118 1    
   102   51  119 1    
   103   52   53 2    
   104   52   54 am   BACKBONE|DICT|INTERRES
   105   54   55 1    
   106   54  120 1    
   107   55   56 1    
   108   55   57 1    
   109   55  121 1    
   110   56  122 1    
   111   56  123 1    
   112   56  124 1    
   113   57   58 2    
   114   57   59 am   BACKBONE|DICT|INTERRES
   115   59   60 1    
   116   59  125 1    
   117   60   61 1    
   118   60   62 1    
   119   60  126 1    
   120   61  127 1    
   121   61  128 1    
   122   61  129 1    
   123   62   63 2    
   124   62   64 am   BACKBONE|DICT|INTERRES
   125   64   65 1    
   126   64  130 1    
   127   65   66 1    
   128   65   69 1    
   129   65  131 1    
   130   66   67 am   BACKBONE|DICT|INTERRES
   131   66   68 2    
   132   67  132 1    
   133   67  133 1    
   134   69   70 1    
   135   69  134 1    
   136   69  135 1    
   137   70   71 1    
   138   71  136 1    
   139   71  137 1    
@<TRIPOS>SUBSTRUCTURE
     1 UNK         1 GROUP             0       ****    0 ROOT    
