@<TRIPOS>MOLECULE
3R137
137   139    1
SMALL
USER_CHARGES


@<TRIPOS>ATOM
      1 CA         24.0960   -4.1471    0.4431 C.3       0 UNK        -0.2020 
      2 C          25.2251   -3.2142    0.0327 C.2       0 UNK         0.4855 
      3 O          25.5824   -2.3113    0.7912 O.2       0 UNK        -0.5197 
      4 N          25.7917   -3.4202   -1.1628 N.am      1 UNK        -0.4892 
      5 CA         26.8794   -2.6198   -1.7375 C.3       1 UNK         0.0835 
      6 C6         27.6762   -3.4128   -2.8022 C.3       12 UNK        -0.0855 
      7 S7         28.5058   -4.8786   -2.0981 S.3       12 UNK        -0.2931 
      8 C8         30.2307   -4.2970   -1.9196 C.3       12 UNK         0.0378 
      9 C9         30.8653   -3.8649   -3.2389 C.ar      12 UNK        -0.0802 
     10 C10        31.5986   -2.6762   -3.3087 C.ar      12 UNK        -0.0944 
     11 C11        32.1529   -2.2515   -4.5207 C.ar      12 UNK        -0.0787 
     12 C12        31.9534   -3.0168   -5.6754 C.ar      12 UNK        -0.0862 
     13 C13        31.2376   -4.2159   -5.6142 C.ar      12 UNK        -0.0733 
     14 C14        30.7173   -4.6435   -4.3902 C.ar      12 UNK        -0.0832 
     15 C15        31.0176   -5.0590   -6.8628 C.3       12 UNK         0.0240 
     16 S16        29.8002   -4.3332   -8.0104 S.3       12 UNK        -0.2522 
     17 C17        28.3293   -4.0518   -6.9597 C.3       12 UNK        -0.0967 
     18 CA         27.6404   -2.6897   -7.2240 C.3       5 UNK         0.0660 
     19 N          26.3067   -2.6502   -6.6108 N.am      5 UNK        -0.4015 
     20 C          25.4261   -1.6464   -6.7138 C.2       4 UNK         0.4946 
     21 O          25.6766   -0.5851   -7.2879 O.2       4 UNK        -0.5353 
     22 CA         24.0468   -1.8266   -6.0642 C.3       4 UNK         0.0277 
     23 CB         23.9122   -3.0765   -5.1689 C.3       4 UNK        -0.1981 
     24 N          23.7884   -0.6316   -5.2713 N.am      4 UNK        -0.4209 
     25 C          22.6972    0.1412   -5.3317 C.2       3 UNK         0.4942 
     26 O          21.7185   -0.1165   -6.0348 O.2       3 UNK        -0.5208 
     27 CA         22.7042    1.4407   -4.4939 C.3       3 UNK         0.0250 
     28 CB         21.3324    1.7325   -3.8481 C.3       3 UNK        -0.1990 
     29 N          23.7898    1.5115   -3.5024 N.am      3 UNK        -0.4232 
     30 C          23.9637    0.7172   -2.4361 C.2       2 UNK         0.4993 
     31 O          23.1598   -0.1400   -2.0628 O.2       2 UNK        -0.5286 
     32 CA         25.2878    0.8903   -1.6767 C.3       2 UNK         0.0209 
     33 CB         25.0667    1.6568   -0.3631 C.3       2 UNK        -0.1931 
     34 N          25.9006   -0.4058   -1.3834 N.am      2 UNK        -0.4546 
     35 C          26.3347   -1.2876   -2.2936 C.2       1 UNK         0.5154 
     36 O          26.3100   -1.0855   -3.5126 O.2       1 UNK        -0.5181 
     37 C          28.5408   -1.4792   -6.8731 C.2       5 UNK         0.5014 
     38 O          29.2732   -1.0113   -7.7491 O.2       5 UNK        -0.5248 
     39 N          28.4326   -0.9336   -5.6500 N.am      6 UNK        -0.4434 
     40 CA         29.2021    0.2459   -5.2335 C.3       6 UNK         0.0363 
     41 CB         29.1986    0.3807   -3.7032 C.3       6 UNK        -0.1936 
     42 C          28.7360    1.5566   -5.8963 C.2       6 UNK         0.5081 
     43 O          29.4865    2.5315   -5.8675 O.2       6 UNK        -0.5248 
     44 N          27.5312    1.5643   -6.4815 N.am      7 UNK        -0.4718 
     45 CA         27.0083    2.6681   -7.2850 C.3       7 UNK         0.0273 
     46 CB         25.5405    2.9256   -6.9025 C.3       7 UNK        -0.1935 
     47 C          27.1321    2.3583   -8.7848 C.2       7 UNK         0.5018 
     48 O          27.5349    3.2352   -9.5492 O.2       7 UNK        -0.5186 
     49 N          26.7655    1.1304   -9.1798 N.am      8 UNK        -0.4240 
     50 CA         26.6986    0.6818  -10.5710 C.3       8 UNK         0.0235 
     51 CB         25.8818   -0.6186  -10.6522 C.3       8 UNK        -0.2000 
     52 C          28.0740    0.5019  -11.2311 C.2       8 UNK         0.4941 
     53 O          28.2540    0.9545  -12.3628 O.2       8 UNK        -0.5273 
     54 N          29.0055   -0.1596  -10.5318 N.am      9 UNK        -0.4262 
     55 CA         30.3712   -0.4011  -11.0046 C.3       9 UNK         0.0264 
     56 CB         30.7560   -1.8700  -10.7618 C.3       9 UNK        -0.1955 
     57 C          31.3579    0.5407  -10.3048 C.2       9 UNK         0.5031 
     58 O          32.1921    1.1429  -10.9830 O.2       9 UNK        -0.5390 
     59 N          31.2177    0.6590   -8.9753 N.am      10 UNK        -0.4204 
     60 CA         32.0263    1.4517   -8.0424 C.3       10 UNK         0.0237 
     61 CB         32.0128    2.9490   -8.4188 C.3       10 UNK        -0.1985 
     62 C          33.4558    0.9128   -7.8425 C.2       10 UNK         0.4970 
     63 O          33.9218    0.0465   -8.5855 O.2       10 UNK        -0.4914 
     64 N          34.1073    1.4298   -6.7957 N.am      11 UNK        -0.4285 
     65 CA         35.4604    1.0578   -6.3500 C.3       11 UNK         0.1007 
     66 C          36.4603    2.2508   -6.4042 C.2       11 UNK         0.5703 
     67 N          36.0983    3.4026   -6.9588 N.am      11 UNK        -0.7361 
     68 O          37.5976    2.1274   -5.9552 O.2       11 UNK        -0.4986 
     69 C69        35.4172    0.3912   -4.9454 C.3       12 UNK        -0.0947 
     70 S70        34.7018   -1.2862   -4.9826 S.3       12 UNK        -0.2240 
     71 C71        32.9564   -0.9610   -4.5850 C.3       12 UNK         0.0194 
     72 H72        24.3477   -4.6534    1.3746 H         1 UNK         0.0906 
     73 H73        23.1797   -3.5786    0.6004 H         1 UNK         0.0906 
     74 H74        23.8985   -4.9067   -0.3131 H         1 UNK         0.0906 
     75 H75        25.4599   -4.1781   -1.7421 H         1 UNK         0.3140 
     76 H76        27.5786   -2.3601   -0.9389 H         1 UNK         0.1085 
     77 H77        27.0170   -3.7491   -3.6040 H         1 UNK         0.0836 
     78 H78        28.4205   -2.7739   -3.2784 H         1 UNK         0.0836 
     79 H79        30.2459   -3.4782   -1.1985 H         1 UNK         0.0731 
     80 H80        30.8304   -5.0999   -1.4891 H         1 UNK         0.0731 
     81 H81        31.7346   -2.0769   -2.4188 H         1 UNK         0.1312 
     82 H82        32.3621   -2.6826   -6.6197 H         1 UNK         0.1406 
     83 H83        30.1635   -5.5712   -4.3388 H         1 UNK         0.1631 
     84 H84        30.6906   -6.0652   -6.5963 H         1 UNK         0.0717 
     85 H85        31.9664   -5.1783   -7.3878 H         1 UNK         0.0717 
     86 H86        27.6348   -4.8655   -7.1747 H         1 UNK         0.0934 
     87 H87        28.5719   -4.1482   -5.9027 H         1 UNK         0.0934 
     88 H88        27.4643   -2.6260   -8.2994 H         1 UNK         0.0739 
     89 H89        26.0196   -3.4779   -6.1107 H         1 UNK         0.3093 
     90 H90        23.3270   -1.9031   -6.8816 H         1 UNK         0.0818 
     91 H91        22.9183   -3.1250   -4.7232 H         1 UNK         0.0819 
     92 H92        24.0446   -3.9959   -5.7404 H         1 UNK         0.0819 
     93 H93        24.6325   -3.0761   -4.3506 H         1 UNK         0.0819 
     94 H94        24.5562   -0.3444   -4.6767 H         1 UNK         0.3041 
     95 H95        22.9021    2.2436   -5.2055 H         1 UNK         0.0784 
     96 H96        20.5588    1.8476   -4.6083 H         1 UNK         0.0793 
     97 H97        21.0146    0.9271   -3.1855 H         1 UNK         0.0793 
     98 H98        21.3540    2.6557   -3.2690 H         1 UNK         0.0793 
     99 H99        24.5070    2.1939   -3.7064 H         1 UNK         0.3024 
    100 H100       25.9874    1.4547   -2.2971 H         1 UNK         0.1171 
    101 H101       24.3939    1.1200    0.3074 H         1 UNK         0.0786 
    102 H102       24.6266    2.6372   -0.5512 H         1 UNK         0.0786 
    103 H103       26.0066    1.8198    0.1649 H         1 UNK         0.0786 
    104 H104       25.8674   -0.7213   -0.4191 H         1 UNK         0.2977 
    105 H105       27.7376   -1.2804   -4.9975 H         1 UNK         0.3127 
    106 H106       30.2347    0.0808   -5.5413 H         1 UNK         0.0770 
    107 H107       29.4668   -0.5548   -3.2138 H         1 UNK         0.0814 
    108 H108       28.2275    0.7013   -3.3289 H         1 UNK         0.0814 
    109 H109       29.9239    1.1300   -3.3837 H         1 UNK         0.0814 
    110 H110       26.9878    0.7077   -6.4892 H         1 UNK         0.2983 
    111 H111       27.5715    3.5833   -7.0886 H         1 UNK         0.0947 
    112 H112       25.1203    3.7382   -7.4966 H         1 UNK         0.0806 
    113 H113       25.4520    3.2124   -5.8551 H         1 UNK         0.0806 
    114 H114       24.9155    2.0465   -7.0643 H         1 UNK         0.0806 
    115 H115       26.4046    0.4840   -8.4786 H         1 UNK         0.3000 
    116 H116       26.1626    1.4469  -11.1371 H         1 UNK         0.0850 
    117 H117       25.7857   -0.9558  -11.6852 H         1 UNK         0.0810 
    118 H118       24.8735   -0.4775  -10.2621 H         1 UNK         0.0810 
    119 H119       26.3470   -1.4261  -10.0870 H         1 UNK         0.0810 
    120 H120       28.7947   -0.4660   -9.5874 H         1 UNK         0.3040 
    121 H121       30.4392   -0.2178  -12.0792 H         1 UNK         0.0766 
    122 H122       31.7480   -2.0817  -11.1626 H         1 UNK         0.0812 
    123 H123       30.0562   -2.5506  -11.2467 H         1 UNK         0.0812 
    124 H124       30.7793   -2.1143   -9.7000 H         1 UNK         0.0812 
    125 H125       30.5215    0.0612   -8.5315 H         1 UNK         0.3205 
    126 H126       31.5283    1.3500   -7.0798 H         1 UNK         0.0754 
    127 H127       32.4360    3.5622   -7.6230 H         1 UNK         0.0769 
    128 H128       30.9944    3.3026   -8.5834 H         1 UNK         0.0769 
    129 H129       32.5881    3.1495   -9.3230 H         1 UNK         0.0769 
    130 H130       33.6556    2.1435   -6.2423 H         1 UNK         0.2981 
    131 H131       35.8838    0.3310   -7.0453 H         1 UNK         0.0541 
    132 H132       35.1883    3.5134   -7.3748 H         1 UNK         0.3459 
    133 H133       36.7623    4.1603   -6.9914 H         1 UNK         0.3459 
    134 H134       34.8734    1.0139   -4.2330 H         1 UNK         0.0612 
    135 H135       36.4232    0.2788   -4.5375 H         1 UNK         0.0612 
    136 H136       32.8983   -0.4197   -3.6394 H         1 UNK         0.0624 
    137 H137       32.5238   -0.3115   -5.3432 H         1 UNK         0.0624 
@<TRIPOS>BOND
     1    1    2 1    
     2    1   72 1    
     3    1   73 1    
     4    1   74 1    
     5    2    3 2    
     6    2    4 am   BACKBONE|DICT|INTERRES
     7    4    5 1    
     8    4   75 1    
     9    5    6 1    
    10    5   35 1    
    11    5   76 1    
    12    6    7 1    
    13    6   77 1    
    14    6   78 1    
    15    7    8 1    
    16    8    9 1    
    17    8   79 1    
    18    8   80 1    
    19    9   10 ar   
    20    9   14 ar   
    21   10   11 ar   
    22   10   81 1    
    23   11   12 ar   
    24   11   71 1    
    25   12   13 ar   
    26   12   82 1    
    27   13   14 ar   
    28   13   15 1    
    29   14   83 1    
    30   15   16 1    
    31   15   84 1    
    32   15   85 1    
    33   16   17 1    
    34   17   18 1    
    35   17   86 1    
    36   17   87 1    
    37   18   19 1    
    38   18   37 1    
    39   18   88 1    
    40   19   20 am   BACKBONE|DICT|INTERRES
    41   19   89 1    
    42   20   21 2    
    43   20   22 1    
    44   22   23 1    
    45   22   24 1    
    46   22   90 1    
    47   23   91 1    
    48   23   92 1    
    49   23   93 1    
    50   24   25 am   BACKBONE|DICT|INTERRES
    51   24   94 1    
    52   25   26 2    
    53   25   27 1    
    54   27   28 1    
    55   27   29 1    
    56   27   95 1    
    57   28   96 1    
    58   28   97 1    
    59   28   98 1    
    60   29   30 am   BACKBONE|DICT|INTERRES
    61   29   99 1    
    62   30   31 2    
    63   30   32 1    
    64   32   33 1    
    65   32   34 1    
    66   32  100 1    
    67   33  101 1    
    68   33  102 1    
    69   33  103 1    
    70   34   35 am   BACKBONE|DICT|INTERRES
    71   34  104 1    
    72   35   36 2    
    73   37   38 2    
    74   37   39 am   BACKBONE|DICT|INTERRES
    75   39   40 1    
    76   39  105 1    
    77   40   41 1    
    78   40   42 1    
    79   40  106 1    
    80   41  107 1    
    81   41  108 1    
    82   41  109 1    
    83   42   43 2    
    84   42   44 am   BACKBONE|DICT|INTERRES
    85   44   45 1    
    86   44  110 1    
    87   45   46 1    
    88   45   47 1    
    89   45  111 1    
    90   46  112 1    
    91   46  113 1    
    92   46  114 1    
    93   47   48 2    
    94   47   49 am   BACKBONE|DICT|INTERRES
    95   49   50 1    
    96   49  115 1    
    97   50   51 1    
    98   50   52 1    
    99   50  116 1    
   100   51  117 1    
   101   51  118 1    
   102   51  119 1    
   103   52   53 2    
   104   52   54 am   BACKBONE|DICT|INTERRES
   105   54   55 1    
   106   54  120 1    
   107   55   56 1    
   108   55   57 1    
   109   55  121 1    
   110   56  122 1    
   111   56  123 1    
   112   56  124 1    
   113   57   58 2    
   114   57   59 am   BACKBONE|DICT|INTERRES
   115   59   60 1    
   116   59  125 1    
   117   60   61 1    
   118   60   62 1    
   119   60  126 1    
   120   61  127 1    
   121   61  128 1    
   122   61  129 1    
   123   62   63 2    
   124   62   64 am   BACKBONE|DICT|INTERRES
   125   64   65 1    
   126   64  130 1    
   127   65   66 1    
   128   65   69 1    
   129   65  131 1    
   130   66   67 am   BACKBONE|DICT|INTERRES
   131   66   68 2    
   132   67  132 1    
   133   67  133 1    
   134   69   70 1    
   135   69  134 1    
   136   69  135 1    
   137   70   71 1    
   138   71  136 1    
   139   71  137 1    
@<TRIPOS>SUBSTRUCTURE
     1 UNK         1 GROUP             0       ****    0 ROOT    
