@<TRIPOS>MOLECULE
3R137
137   139    1
SMALL
USER_CHARGES


@<TRIPOS>ATOM
      1 CA         22.9622   -4.2032   -6.5549 C.3       0 UNK        -0.2020 
      2 C          24.1550   -3.9227   -5.6535 C.2       0 UNK         0.4855 
      3 O          24.7014   -2.8222   -5.7013 O.2       0 UNK        -0.5197 
      4 N          24.5591   -4.9118   -4.8457 N.am      1 UNK        -0.4892 
      5 CA         25.6521   -4.8606   -3.8685 C.3       1 UNK         0.0835 
      6 C6         27.0233   -4.4821   -4.4919 C.3       12 UNK        -0.0855 
      7 S7         28.4146   -5.0570   -3.4648 S.3       12 UNK        -0.2931 
      8 C8         29.8132   -4.2205   -4.2845 C.3       12 UNK         0.0378 
      9 C9         30.1297   -2.7958   -3.8188 C.ar      12 UNK        -0.0802 
     10 C10        31.2615   -2.1823   -4.3664 C.ar      12 UNK        -0.0944 
     11 C11        31.6461   -0.8999   -3.9720 C.ar      12 UNK        -0.0787 
     12 C12        30.8832   -0.2164   -3.0252 C.ar      12 UNK        -0.0862 
     13 C13        29.7502   -0.8077   -2.4605 C.ar      12 UNK        -0.0733 
     14 C14        29.3740   -2.0967   -2.8618 C.ar      12 UNK        -0.0832 
     15 C15        28.9847   -0.0537   -1.3765 C.3       12 UNK         0.0240 
     16 S16        27.2250    0.2388   -1.7489 S.3       12 UNK        -0.2522 
     17 C17        27.2386    0.8956   -3.4562 C.3       12 UNK        -0.0967 
     18 CA         26.4780   -0.0724   -4.3988 C.3       5 UNK         0.0660 
     19 N          25.0720   -0.2479   -4.0085 N.am      5 UNK        -0.4015 
     20 C          24.0735    0.6364   -4.1583 C.2       4 UNK         0.4946 
     21 O          24.1992    1.7476   -4.6756 O.2       4 UNK        -0.5353 
     22 CA         22.6917    0.2189   -3.6309 C.3       4 UNK         0.0277 
     23 CB         22.0215   -0.8016   -4.5639 C.3       4 UNK        -0.1981 
     24 N          22.7423   -0.3193   -2.2726 N.am      4 UNK        -0.4209 
     25 C          22.9965    0.3911   -1.1675 C.2       3 UNK         0.4942 
     26 O          23.1969    1.6063   -1.1689 O.2       3 UNK        -0.5208 
     27 CA         23.0178   -0.3639    0.1760 C.3       3 UNK         0.0250 
     28 CB         21.5964   -0.4979    0.7576 C.3       3 UNK        -0.1990 
     29 N          23.7152   -1.6592    0.1538 N.am      3 UNK        -0.4232 
     30 C          23.3934   -2.7803   -0.5070 C.2       2 UNK         0.4993 
     31 O          22.3973   -2.9070   -1.2240 O.2       2 UNK        -0.5286 
     32 CA         24.3632   -3.9625   -0.3461 C.3       2 UNK         0.0209 
     33 CB         23.7722   -5.0170    0.6040 C.3       2 UNK        -0.1931 
     34 N          24.7031   -4.5977   -1.6234 N.am      2 UNK        -0.4546 
     35 C          25.2788   -3.9747   -2.6621 C.2       1 UNK         0.5154 
     36 O          25.5193   -2.7667   -2.6843 O.2       1 UNK        -0.5181 
     37 C          26.6188    0.2587   -5.9002 C.2       5 UNK         0.5014 
     38 O          27.3064    1.2103   -6.2774 O.2       5 UNK        -0.5248 
     39 N          25.9411   -0.5470   -6.7311 N.am      6 UNK        -0.4434 
     40 CA         25.7844   -0.3748   -8.1790 C.3       6 UNK         0.0363 
     41 CB         24.6695   -1.3149   -8.6679 C.3       6 UNK        -0.1936 
     42 C          27.0682   -0.5795   -9.0055 C.2       6 UNK         0.5081 
     43 O          27.0414   -0.3381  -10.2128 O.2       6 UNK        -0.5248 
     44 N          28.1615   -1.0129   -8.3614 N.am      7 UNK        -0.4718 
     45 CA         29.4999   -1.1441   -8.9437 C.3       7 UNK         0.0273 
     46 CB         30.4462   -1.7394   -7.8890 C.3       7 UNK        -0.1935 
     47 C          30.0529    0.1831   -9.4967 C.2       7 UNK         0.5018 
     48 O          30.6769    0.1732  -10.5591 O.2       7 UNK        -0.5186 
     49 N          29.7726    1.2923   -8.7917 N.am      8 UNK        -0.4240 
     50 CA         30.0460    2.6843   -9.1704 C.3       8 UNK         0.0235 
     51 CB         28.9992    3.1535  -10.2056 C.3       8 UNK        -0.2000 
     52 C          31.5041    2.9082   -9.6177 C.2       8 UNK         0.4941 
     53 O          32.4001    2.9030   -8.7749 O.2       8 UNK        -0.5273 
     54 N          31.7268    3.0656  -10.9304 N.am      9 UNK        -0.4262 
     55 CA         33.0434    3.2303  -11.5533 C.3       9 UNK         0.0264 
     56 CB         32.8627    3.5034  -13.0550 C.3       9 UNK        -0.1955 
     57 C          34.0008    2.0433  -11.3346 C.2       9 UNK         0.5031 
     58 O          35.2150    2.2537  -11.3218 O.2       9 UNK        -0.5390 
     59 N          33.4606    0.8311  -11.1301 N.am      10 UNK        -0.4204 
     60 CA         34.2404   -0.3738  -10.8280 C.3       10 UNK         0.0237 
     61 CB         33.3719   -1.6254  -11.0342 C.3       10 UNK        -0.1985 
     62 C          34.8745   -0.3651   -9.4236 C.2       10 UNK         0.4970 
     63 O          35.7689   -1.1756   -9.1777 O.2       10 UNK        -0.4914 
     64 N          34.4382    0.5452   -8.5398 N.am      11 UNK        -0.4285 
     65 CA         35.0769    0.8037   -7.2402 C.3       11 UNK         0.1007 
     66 C          36.4529    1.5277   -7.3447 C.2       11 UNK         0.5703 
     67 N          36.8357    2.0849   -8.4897 N.am      11 UNK        -0.7361 
     68 O          37.1933    1.5767   -6.3653 O.2       11 UNK        -0.4986 
     69 C69        34.1387    1.5613   -6.2647 C.3       12 UNK        -0.0947 
     70 S70        32.5329    0.7366   -6.0072 S.3       12 UNK        -0.2240 
     71 C71        32.9040   -0.2616   -4.5376 C.3       12 UNK         0.0194 
     72 H72        23.2665   -4.1626   -7.6003 H         1 UNK         0.0906 
     73 H73        22.1877   -3.4531   -6.3978 H         1 UNK         0.0906 
     74 H74        22.5270   -5.1841   -6.3651 H         1 UNK         0.0906 
     75 H75        24.0470   -5.7835   -4.8606 H         1 UNK         0.3140 
     76 H76        25.7430   -5.8846   -3.5012 H         1 UNK         0.1085 
     77 H77        27.1085   -3.4085   -4.6660 H         1 UNK         0.0836 
     78 H78        27.1263   -4.9521   -5.4712 H         1 UNK         0.0836 
     79 H79        30.6993   -4.8350   -4.1181 H         1 UNK         0.0731 
     80 H80        29.6457   -4.2169   -5.3627 H         1 UNK         0.0731 
     81 H81        31.8577   -2.7121   -5.0973 H         1 UNK         0.1312 
     82 H82        31.1874    0.7742   -2.7150 H         1 UNK         0.1406 
     83 H83        28.4978   -2.5447   -2.4137 H         1 UNK         0.1631 
     84 H84        29.4503    0.9128   -1.1774 H         1 UNK         0.0717 
     85 H85        29.0518   -0.6172   -0.4451 H         1 UNK         0.0717 
     86 H86        26.7755    1.8836   -3.4613 H         1 UNK         0.0934 
     87 H87        28.2669    1.0413   -3.7903 H         1 UNK         0.0934 
     88 H88        26.9390   -1.0542   -4.2872 H         1 UNK         0.0739 
     89 H89        24.8817   -1.1435   -3.5666 H         1 UNK         0.3093 
     90 H90        22.0666    1.1145   -3.6130 H         1 UNK         0.0818 
     91 H91        20.9721   -0.9423   -4.3048 H         1 UNK         0.0819 
     92 H92        22.5091   -1.7736   -4.5069 H         1 UNK         0.0819 
     93 H93        22.0594   -0.4731   -5.6036 H         1 UNK         0.0819 
     94 H94        22.5744   -1.3160   -2.1514 H         1 UNK         0.3041 
     95 H95        23.5908    0.2584    0.8656 H         1 UNK         0.0784 
     96 H96        21.1269    0.4810    0.8638 H         1 UNK         0.0793 
     97 H97        20.9475   -1.0989    0.1199 H         1 UNK         0.0793 
     98 H98        21.6140   -0.9574    1.7458 H         1 UNK         0.0793 
     99 H99        24.5781   -1.6683    0.6804 H         1 UNK         0.3024 
    100 H100       25.2964   -3.5936    0.0856 H         1 UNK         0.1171 
    101 H101       23.5305   -4.5783    1.5732 H         1 UNK         0.0786 
    102 H102       22.8534   -5.4489    0.2044 H         1 UNK         0.0786 
    103 H103       24.4757   -5.8300    0.7851 H         1 UNK         0.0786 
    104 H104       24.4982   -5.5832   -1.7000 H         1 UNK         0.2977 
    105 H105       25.4364   -1.3356   -6.3203 H         1 UNK         0.3127 
    106 H106       25.4613    0.6539   -8.3506 H         1 UNK         0.0770 
    107 H107       24.9453   -2.3621   -8.5383 H         1 UNK         0.0814 
    108 H108       24.4607   -1.1609   -9.7274 H         1 UNK         0.0814 
    109 H109       23.7385   -1.1440   -8.1269 H         1 UNK         0.0814 
    110 H110       28.0757   -1.1915   -7.3721 H         1 UNK         0.2983 
    111 H111       29.4329   -1.8409   -9.7820 H         1 UNK         0.0947 
    112 H112       30.4481   -1.1447   -6.9756 H         1 UNK         0.0806 
    113 H113       31.4742   -1.7808   -8.2493 H         1 UNK         0.0806 
    114 H114       30.1548   -2.7557   -7.6238 H         1 UNK         0.0806 
    115 H115       29.2644    1.1724   -7.9249 H         1 UNK         0.3000 
    116 H116       29.9112    3.2832   -8.2684 H         1 UNK         0.0850 
    117 H117       29.1705    4.1889  -10.5037 H         1 UNK         0.0810 
    118 H118       27.9938    3.1062   -9.7864 H         1 UNK         0.0810 
    119 H119       29.0021    2.5379  -11.1061 H         1 UNK         0.0810 
    120 H120       30.9327    3.0214  -11.5525 H         1 UNK         0.3040 
    121 H121       33.5102    4.1073  -11.1000 H         1 UNK         0.0766 
    122 H122       33.8267    3.6579  -13.5421 H         1 UNK         0.0812 
    123 H123       32.2680    4.4006  -13.2278 H         1 UNK         0.0812 
    124 H124       32.3722    2.6706  -13.5607 H         1 UNK         0.0812 
    125 H125       32.4472    0.7357  -11.1017 H         1 UNK         0.3205 
    126 H126       35.0628   -0.4220  -11.5450 H         1 UNK         0.0754 
    127 H127       32.5551   -1.6751  -10.3162 H         1 UNK         0.0769 
    128 H128       33.9633   -2.5341  -10.9137 H         1 UNK         0.0769 
    129 H129       32.9406   -1.6504  -12.0351 H         1 UNK         0.0769 
    130 H130       33.6999    1.1893   -8.7986 H         1 UNK         0.2981 
    131 H131       35.2878   -0.1672   -6.7880 H         1 UNK         0.0541 
    132 H132       36.2420    2.0563   -9.3079 H         1 UNK         0.3459 
    133 H133       37.7312    2.5442   -8.5362 H         1 UNK         0.3459 
    134 H134       33.9395    2.5664   -6.6393 H         1 UNK         0.0612 
    135 H135       34.6216    1.6988   -5.2956 H         1 UNK         0.0612 
    136 H136       33.6356   -1.0277   -4.7987 H         1 UNK         0.0624 
    137 H137       33.3705    0.3658   -3.7765 H         1 UNK         0.0624 
@<TRIPOS>BOND
     1    1    2 1    
     2    1   72 1    
     3    1   73 1    
     4    1   74 1    
     5    2    3 2    
     6    2    4 am   BACKBONE|DICT|INTERRES
     7    4    5 1    
     8    4   75 1    
     9    5    6 1    
    10    5   35 1    
    11    5   76 1    
    12    6    7 1    
    13    6   77 1    
    14    6   78 1    
    15    7    8 1    
    16    8    9 1    
    17    8   79 1    
    18    8   80 1    
    19    9   10 ar   
    20    9   14 ar   
    21   10   11 ar   
    22   10   81 1    
    23   11   12 ar   
    24   11   71 1    
    25   12   13 ar   
    26   12   82 1    
    27   13   14 ar   
    28   13   15 1    
    29   14   83 1    
    30   15   16 1    
    31   15   84 1    
    32   15   85 1    
    33   16   17 1    
    34   17   18 1    
    35   17   86 1    
    36   17   87 1    
    37   18   19 1    
    38   18   37 1    
    39   18   88 1    
    40   19   20 am   BACKBONE|DICT|INTERRES
    41   19   89 1    
    42   20   21 2    
    43   20   22 1    
    44   22   23 1    
    45   22   24 1    
    46   22   90 1    
    47   23   91 1    
    48   23   92 1    
    49   23   93 1    
    50   24   25 am   BACKBONE|DICT|INTERRES
    51   24   94 1    
    52   25   26 2    
    53   25   27 1    
    54   27   28 1    
    55   27   29 1    
    56   27   95 1    
    57   28   96 1    
    58   28   97 1    
    59   28   98 1    
    60   29   30 am   BACKBONE|DICT|INTERRES
    61   29   99 1    
    62   30   31 2    
    63   30   32 1    
    64   32   33 1    
    65   32   34 1    
    66   32  100 1    
    67   33  101 1    
    68   33  102 1    
    69   33  103 1    
    70   34   35 am   BACKBONE|DICT|INTERRES
    71   34  104 1    
    72   35   36 2    
    73   37   38 2    
    74   37   39 am   BACKBONE|DICT|INTERRES
    75   39   40 1    
    76   39  105 1    
    77   40   41 1    
    78   40   42 1    
    79   40  106 1    
    80   41  107 1    
    81   41  108 1    
    82   41  109 1    
    83   42   43 2    
    84   42   44 am   BACKBONE|DICT|INTERRES
    85   44   45 1    
    86   44  110 1    
    87   45   46 1    
    88   45   47 1    
    89   45  111 1    
    90   46  112 1    
    91   46  113 1    
    92   46  114 1    
    93   47   48 2    
    94   47   49 am   BACKBONE|DICT|INTERRES
    95   49   50 1    
    96   49  115 1    
    97   50   51 1    
    98   50   52 1    
    99   50  116 1    
   100   51  117 1    
   101   51  118 1    
   102   51  119 1    
   103   52   53 2    
   104   52   54 am   BACKBONE|DICT|INTERRES
   105   54   55 1    
   106   54  120 1    
   107   55   56 1    
   108   55   57 1    
   109   55  121 1    
   110   56  122 1    
   111   56  123 1    
   112   56  124 1    
   113   57   58 2    
   114   57   59 am   BACKBONE|DICT|INTERRES
   115   59   60 1    
   116   59  125 1    
   117   60   61 1    
   118   60   62 1    
   119   60  126 1    
   120   61  127 1    
   121   61  128 1    
   122   61  129 1    
   123   62   63 2    
   124   62   64 am   BACKBONE|DICT|INTERRES
   125   64   65 1    
   126   64  130 1    
   127   65   66 1    
   128   65   69 1    
   129   65  131 1    
   130   66   67 am   BACKBONE|DICT|INTERRES
   131   66   68 2    
   132   67  132 1    
   133   67  133 1    
   134   69   70 1    
   135   69  134 1    
   136   69  135 1    
   137   70   71 1    
   138   71  136 1    
   139   71  137 1    
@<TRIPOS>SUBSTRUCTURE
     1 UNK         1 GROUP             0       ****    0 ROOT    
