@<TRIPOS>MOLECULE
3R137
137   139    1
SMALL
USER_CHARGES


@<TRIPOS>ATOM
      1 CA         31.6895    0.0425    0.1596 C.3       0 UNK        -0.2020 
      2 C          30.5436   -0.9588    0.1435 C.2       0 UNK         0.4855 
      3 O          29.9584   -1.2259    1.1938 O.2       0 UNK        -0.5197 
      4 N          30.2398   -1.5091   -1.0405 N.am      1 UNK        -0.4892 
      5 CA         29.1699   -2.4764   -1.3358 C.3       1 UNK         0.0835 
      6 C6         29.2226   -3.7834   -0.4861 C.3       12 UNK        -0.0855 
      7 S7         30.8638   -4.5872   -0.4477 S.3       12 UNK        -0.2931 
      8 C8         30.7475   -5.7785   -1.8259 C.3       12 UNK         0.0378 
      9 C9         30.6036   -5.1070   -3.1881 C.ar      12 UNK        -0.0802 
     10 C10        31.4328   -4.0405   -3.5481 C.ar      12 UNK        -0.0944 
     11 C11        31.2802   -3.4052   -4.7814 C.ar      12 UNK        -0.0787 
     12 C12        30.3231   -3.8747   -5.6848 C.ar      12 UNK        -0.0862 
     13 C13        29.4982   -4.9580   -5.3512 C.ar      12 UNK        -0.0733 
     14 C14        29.6433   -5.5619   -4.0972 C.ar      12 UNK        -0.0832 
     15 C15        28.4764   -5.5355   -6.3316 C.3       12 UNK         0.0240 
     16 S16        27.7853   -4.3422   -7.5247 S.3       12 UNK        -0.2522 
     17 C17        26.7043   -3.3432   -6.4506 C.3       12 UNK        -0.0967 
     18 CA         26.0532   -2.1791   -7.2390 C.3       5 UNK         0.0660 
     19 N          24.8107   -1.7176   -6.6234 N.am      5 UNK        -0.4015 
     20 C          23.7675   -1.2189   -7.3027 C.2       4 UNK         0.4946 
     21 O          23.7011   -1.1840   -8.5319 O.2       4 UNK        -0.5353 
     22 CA         22.5920   -0.6561   -6.4818 C.3       4 UNK         0.0277 
     23 CB         21.4955   -1.7208   -6.3155 C.3       4 UNK        -0.1981 
     24 N          22.9826   -0.1555   -5.1620 N.am      4 UNK        -0.4209 
     25 C          23.7770    0.9037   -4.9521 C.2       3 UNK         0.4942 
     26 O          24.2409    1.6036   -5.8512 O.2       3 UNK        -0.5208 
     27 CA         24.1634    1.1942   -3.4921 C.3       3 UNK         0.0250 
     28 CB         23.1022    2.0817   -2.8222 C.3       3 UNK        -0.1990 
     29 N          24.3874   -0.0067   -2.6757 N.am      3 UNK        -0.4232 
     30 C          25.2571   -0.9866   -2.9606 C.2       2 UNK         0.4993 
     31 O          25.9125   -1.0477   -4.0042 O.2       2 UNK        -0.5286 
     32 CA         25.3810   -2.1236   -1.9358 C.3       2 UNK         0.0209 
     33 CB         24.5020   -3.3125   -2.3571 C.3       2 UNK        -0.1931 
     34 N          26.7684   -2.5762   -1.8082 N.am      2 UNK        -0.4546 
     35 C          27.7649   -1.8333   -1.3049 C.2       1 UNK         0.5154 
     36 O          27.5922   -0.7004   -0.8461 O.2       1 UNK        -0.5181 
     37 C          27.0132   -0.9911   -7.4182 C.2       5 UNK         0.5014 
     38 O          27.4965   -0.7715   -8.5272 O.2       5 UNK        -0.5248 
     39 N          27.2321   -0.2184   -6.3417 N.am      6 UNK        -0.4434 
     40 CA         28.1274    0.9448   -6.2824 C.3       6 UNK         0.0363 
     41 CB         28.1279    1.5099   -4.8544 C.3       6 UNK        -0.1936 
     42 C          27.8115    2.0529   -7.3050 C.2       6 UNK         0.5081 
     43 O          28.7157    2.7891   -7.6959 O.2       6 UNK        -0.5248 
     44 N          26.5543    2.1304   -7.7609 N.am      7 UNK        -0.4718 
     45 CA         26.1110    2.9771   -8.8711 C.3       7 UNK         0.0273 
     46 CB         24.5806    2.8830   -8.9856 C.3       7 UNK        -0.1935 
     47 C          26.7684    2.6514  -10.2299 C.2       7 UNK         0.5018 
     48 O          26.7542    3.5131  -11.1104 O.2       7 UNK        -0.5186 
     49 N          27.3198    1.4400  -10.3931 N.am      8 UNK        -0.4240 
     50 CA         27.9709    0.9745  -11.6175 C.3       8 UNK         0.0235 
     51 CB         26.9209    0.3383  -12.5510 C.3       8 UNK        -0.2000 
     52 C          29.1418    0.0304  -11.2922 C.2       8 UNK         0.4941 
     53 O          29.3154   -0.9836  -11.9721 O.2       8 UNK        -0.5273 
     54 N          29.9318    0.3728  -10.2672 N.am      9 UNK        -0.4262 
     55 CA         31.1087   -0.3747   -9.8268 C.3       9 UNK         0.0264 
     56 CB         30.7007   -1.4311   -8.7829 C.3       9 UNK        -0.1955 
     57 C          32.1411    0.6024   -9.2554 C.2       9 UNK         0.5031 
     58 O          31.8079    1.7582   -8.9822 O.2       9 UNK        -0.5390 
     59 N          33.3751    0.1150   -9.0650 N.am      10 UNK        -0.4204 
     60 CA         34.5322    0.8865   -8.5900 C.3       10 UNK         0.0237 
     61 CB         35.7791   -0.0131   -8.6051 C.3       10 UNK        -0.1985 
     62 C          34.3582    1.5352   -7.2035 C.2       10 UNK         0.4970 
     63 O          34.9814    2.5653   -6.9439 O.2       10 UNK        -0.4914 
     64 N          33.5174    0.9357   -6.3517 N.am      11 UNK        -0.4285 
     65 CA         33.1052    1.4902   -5.0548 C.3       11 UNK         0.1007 
     66 C          32.0322    2.6173   -5.1387 C.2       11 UNK         0.5703 
     67 N          31.4861    2.9390   -6.3049 N.am      11 UNK        -0.7361 
     68 O          31.6998    3.2227   -4.1226 O.2       11 UNK        -0.4986 
     69 C69        32.7216    0.3703   -4.0523 C.3       12 UNK        -0.0947 
     70 S70        31.3138   -0.6696   -4.5787 S.3       12 UNK        -0.2240 
     71 C71        32.1407   -2.1997   -5.1165 C.3       12 UNK         0.0194 
     72 H72        32.3898   -0.2006    0.9583 H         1 UNK         0.0906 
     73 H73        32.2416    0.0455   -0.7794 H         1 UNK         0.0906 
     74 H74        31.3070    1.0475    0.3352 H         1 UNK         0.0906 
     75 H75        30.7565   -1.2090   -1.8555 H         1 UNK         0.3140 
     76 H76        29.3243   -2.7504   -2.3792 H         1 UNK         0.1085 
     77 H77        28.9347   -3.5755    0.5458 H         1 UNK         0.0836 
     78 H78        28.4959   -4.5114   -0.8502 H         1 UNK         0.0836 
     79 H79        31.6499   -6.3911   -1.8352 H         1 UNK         0.0731 
     80 H80        29.9156   -6.4582   -1.6345 H         1 UNK         0.0731 
     81 H81        32.1779   -3.6814   -2.8512 H         1 UNK         0.1312 
     82 H82        30.2244   -3.3907   -6.6457 H         1 UNK         0.1406 
     83 H83        29.0133   -6.4009   -3.8330 H         1 UNK         0.1631 
     84 H84        27.6498   -5.9979   -5.7898 H         1 UNK         0.0717 
     85 H85        28.9614   -6.3351   -6.8927 H         1 UNK         0.0717 
     86 H86        25.9319   -4.0088   -6.0617 H         1 UNK         0.0934 
     87 H87        27.2623   -2.9883   -5.5812 H         1 UNK         0.0934 
     88 H88        25.8097   -2.5518   -8.2370 H         1 UNK         0.0739 
     89 H89        24.8224   -1.6370   -5.6134 H         1 UNK         0.3093 
     90 H90        22.1746    0.1816   -7.0451 H         1 UNK         0.0818 
     91 H91        20.6185   -1.3132   -5.8122 H         1 UNK         0.0819 
     92 H92        21.1645   -2.0940   -7.2858 H         1 UNK         0.0819 
     93 H93        21.8469   -2.5781   -5.7398 H         1 UNK         0.0819 
     94 H94        22.6463   -0.6674   -4.3593 H         1 UNK         0.3041 
     95 H95        25.1019    1.7499   -3.5096 H         1 UNK         0.0784 
     96 H96        22.9312    2.9902   -3.4019 H         1 UNK         0.0793 
     97 H97        22.1439    1.5690   -2.7298 H         1 UNK         0.0793 
     98 H98        23.4154    2.3920   -1.8251 H         1 UNK         0.0793 
     99 H99        23.8788   -0.0513   -1.8040 H         1 UNK         0.3024 
    100 H100       25.0499   -1.7628   -0.9592 H         1 UNK         0.1171 
    101 H101       23.4546   -3.0178   -2.4356 H         1 UNK         0.0786 
    102 H102       24.5537   -4.1221   -1.6288 H         1 UNK         0.0786 
    103 H103       24.8012   -3.7137   -3.3267 H         1 UNK         0.0786 
    104 H104       26.9814   -3.4801   -2.2031 H         1 UNK         0.2977 
    105 H105       26.7757   -0.4756   -5.4667 H         1 UNK         0.3127 
    106 H106       29.1342    0.5866   -6.5031 H         1 UNK         0.0770 
    107 H107       28.8499    2.3217   -4.7575 H         1 UNK         0.0814 
    108 H108       28.3984    0.7477   -4.1229 H         1 UNK         0.0814 
    109 H109       27.1510    1.9078   -4.5828 H         1 UNK         0.0814 
    110 H110       25.8497    1.5481   -7.3229 H         1 UNK         0.2983 
    111 H111       26.3763    4.0077   -8.6264 H         1 UNK         0.0947 
    112 H112       24.2080    3.5015   -9.8034 H         1 UNK         0.0806 
    113 H113       24.0929    3.2281   -8.0738 H         1 UNK         0.0806 
    114 H114       24.2539    1.8591   -9.1735 H         1 UNK         0.0806 
    115 H115       27.3132    0.7742   -9.6211 H         1 UNK         0.3000 
    116 H116       28.4148    1.8274  -12.1355 H         1 UNK         0.0850 
    117 H117       27.3717    0.0170  -13.4908 H         1 UNK         0.0810 
    118 H118       26.1294    1.0452  -12.8000 H         1 UNK         0.0810 
    119 H119       26.4580   -0.5359  -12.0915 H         1 UNK         0.0810 
    120 H120       29.7809    1.2480   -9.7783 H         1 UNK         0.3040 
    121 H121       31.5633   -0.8717  -10.6866 H         1 UNK         0.0766 
    122 H122       31.5456   -2.0616   -8.5065 H         1 UNK         0.0812 
    123 H123       29.9237   -2.0910   -9.1700 H         1 UNK         0.0812 
    124 H124       30.3179   -0.9716   -7.8714 H         1 UNK         0.0812 
    125 H125       33.5549   -0.8468   -9.3164 H         1 UNK         0.3205 
    126 H126       34.6904    1.6991   -9.3022 H         1 UNK         0.0754 
    127 H127       36.6636    0.5388   -8.2832 H         1 UNK         0.0769 
    128 H128       35.9851   -0.3917   -9.6065 H         1 UNK         0.0769 
    129 H129       35.6684   -0.8684   -7.9371 H         1 UNK         0.0769 
    130 H130       33.0293    0.1070   -6.6520 H         1 UNK         0.2981 
    131 H131       33.9815    1.9820   -4.6281 H         1 UNK         0.0541 
    132 H132       31.7314    2.4549   -7.1623 H         1 UNK         0.3459 
    133 H133       30.7742    3.6505   -6.3383 H         1 UNK         0.3459 
    134 H134       32.4681    0.8070   -3.0853 H         1 UNK         0.0612 
    135 H135       33.5922   -0.2568   -3.8583 H         1 UNK         0.0612 
    136 H136       33.1127   -2.3044   -4.6333 H         1 UNK         0.0624 
    137 H137       32.3346   -2.1515   -6.1881 H         1 UNK         0.0624 
@<TRIPOS>BOND
     1    1    2 1    
     2    1   72 1    
     3    1   73 1    
     4    1   74 1    
     5    2    3 2    
     6    2    4 am   BACKBONE|DICT|INTERRES
     7    4    5 1    
     8    4   75 1    
     9    5    6 1    
    10    5   35 1    
    11    5   76 1    
    12    6    7 1    
    13    6   77 1    
    14    6   78 1    
    15    7    8 1    
    16    8    9 1    
    17    8   79 1    
    18    8   80 1    
    19    9   10 ar   
    20    9   14 ar   
    21   10   11 ar   
    22   10   81 1    
    23   11   12 ar   
    24   11   71 1    
    25   12   13 ar   
    26   12   82 1    
    27   13   14 ar   
    28   13   15 1    
    29   14   83 1    
    30   15   16 1    
    31   15   84 1    
    32   15   85 1    
    33   16   17 1    
    34   17   18 1    
    35   17   86 1    
    36   17   87 1    
    37   18   19 1    
    38   18   37 1    
    39   18   88 1    
    40   19   20 am   BACKBONE|DICT|INTERRES
    41   19   89 1    
    42   20   21 2    
    43   20   22 1    
    44   22   23 1    
    45   22   24 1    
    46   22   90 1    
    47   23   91 1    
    48   23   92 1    
    49   23   93 1    
    50   24   25 am   BACKBONE|DICT|INTERRES
    51   24   94 1    
    52   25   26 2    
    53   25   27 1    
    54   27   28 1    
    55   27   29 1    
    56   27   95 1    
    57   28   96 1    
    58   28   97 1    
    59   28   98 1    
    60   29   30 am   BACKBONE|DICT|INTERRES
    61   29   99 1    
    62   30   31 2    
    63   30   32 1    
    64   32   33 1    
    65   32   34 1    
    66   32  100 1    
    67   33  101 1    
    68   33  102 1    
    69   33  103 1    
    70   34   35 am   BACKBONE|DICT|INTERRES
    71   34  104 1    
    72   35   36 2    
    73   37   38 2    
    74   37   39 am   BACKBONE|DICT|INTERRES
    75   39   40 1    
    76   39  105 1    
    77   40   41 1    
    78   40   42 1    
    79   40  106 1    
    80   41  107 1    
    81   41  108 1    
    82   41  109 1    
    83   42   43 2    
    84   42   44 am   BACKBONE|DICT|INTERRES
    85   44   45 1    
    86   44  110 1    
    87   45   46 1    
    88   45   47 1    
    89   45  111 1    
    90   46  112 1    
    91   46  113 1    
    92   46  114 1    
    93   47   48 2    
    94   47   49 am   BACKBONE|DICT|INTERRES
    95   49   50 1    
    96   49  115 1    
    97   50   51 1    
    98   50   52 1    
    99   50  116 1    
   100   51  117 1    
   101   51  118 1    
   102   51  119 1    
   103   52   53 2    
   104   52   54 am   BACKBONE|DICT|INTERRES
   105   54   55 1    
   106   54  120 1    
   107   55   56 1    
   108   55   57 1    
   109   55  121 1    
   110   56  122 1    
   111   56  123 1    
   112   56  124 1    
   113   57   58 2    
   114   57   59 am   BACKBONE|DICT|INTERRES
   115   59   60 1    
   116   59  125 1    
   117   60   61 1    
   118   60   62 1    
   119   60  126 1    
   120   61  127 1    
   121   61  128 1    
   122   61  129 1    
   123   62   63 2    
   124   62   64 am   BACKBONE|DICT|INTERRES
   125   64   65 1    
   126   64  130 1    
   127   65   66 1    
   128   65   69 1    
   129   65  131 1    
   130   66   67 am   BACKBONE|DICT|INTERRES
   131   66   68 2    
   132   67  132 1    
   133   67  133 1    
   134   69   70 1    
   135   69  134 1    
   136   69  135 1    
   137   70   71 1    
   138   71  136 1    
   139   71  137 1    
@<TRIPOS>SUBSTRUCTURE
     1 UNK         1 GROUP             0       ****    0 ROOT    
