@<TRIPOS>MOLECULE
3R137
137   139    1
SMALL
USER_CHARGES


@<TRIPOS>ATOM
      1 CA         29.5350    0.5324   -3.4548 C.3       0 UNK        -0.2020 
      2 C          29.0756   -0.2556   -2.2354 C.2       0 UNK         0.4855 
      3 O          28.8370    0.3300   -1.1800 O.2       0 UNK        -0.5197 
      4 N          28.9461   -1.5802   -2.3846 N.am      1 UNK        -0.4892 
      5 CA         28.5088   -2.5474   -1.3683 C.3       1 UNK         0.0835 
      6 C6         29.5909   -2.8161   -0.2819 C.3       12 UNK        -0.0855 
      7 S7         29.8141   -4.6083   -0.0026 S.3       12 UNK        -0.2931 
      8 C8         31.2486   -4.9971   -1.0677 C.3       12 UNK         0.0378 
      9 C9         31.0703   -4.5219   -2.5066 C.ar      12 UNK        -0.0802 
     10 C10        31.9255   -3.5475   -3.0328 C.ar      12 UNK        -0.0944 
     11 C11        31.7524   -3.0815   -4.3391 C.ar      12 UNK        -0.0787 
     12 C12        30.7112   -3.5893   -5.1188 C.ar      12 UNK        -0.0862 
     13 C13        29.8373   -4.5494   -4.6001 C.ar      12 UNK        -0.0733 
     14 C14        30.0415   -5.0359   -3.3047 C.ar      12 UNK        -0.0832 
     15 C15        28.6592   -5.0409   -5.4315 C.3       12 UNK         0.0240 
     16 S16        27.0878   -4.2731   -4.9076 S.3       12 UNK        -0.2522 
     17 C17        27.3523   -2.5151   -5.3187 C.3       12 UNK        -0.0967 
     18 CA         26.4546   -1.9938   -6.4621 C.3       5 UNK         0.0660 
     19 N          25.0272   -2.1209   -6.1573 N.am      5 UNK        -0.4015 
     20 C          24.0437   -2.0974   -7.0668 C.2       4 UNK         0.4946 
     21 O          24.2337   -2.0048   -8.2800 O.2       4 UNK        -0.5353 
     22 CA         22.6023   -2.1794   -6.5316 C.3       4 UNK         0.0277 
     23 CB         22.1826   -3.6457   -6.3388 C.3       4 UNK        -0.1981 
     24 N          22.4207   -1.4494   -5.2731 N.am      4 UNK        -0.4209 
     25 C          22.4369   -0.1126   -5.1657 C.2       3 UNK         0.4942 
     26 O          22.5221    0.6486   -6.1292 O.2       3 UNK        -0.5208 
     27 CA         22.3821    0.4805   -3.7431 C.3       3 UNK         0.0250 
     28 CB         20.9275    0.7727   -3.3412 C.3       3 UNK        -0.1990 
     29 N          23.0193   -0.3423   -2.7041 N.am      3 UNK        -0.4232 
     30 C          24.2937   -0.7559   -2.7234 C.2       2 UNK         0.4993 
     31 O          25.0688   -0.5268   -3.6571 O.2       2 UNK        -0.5286 
     32 CA         24.7728   -1.6055   -1.5388 C.3       2 UNK         0.0209 
     33 CB         24.0091   -2.9437   -1.4675 C.3       2 UNK        -0.1931 
     34 N          26.1966   -1.8575   -1.7310 N.am      2 UNK        -0.4546 
     35 C          27.0803   -2.2950   -0.8293 C.2       1 UNK         0.5154 
     36 O          26.7965   -2.5158    0.3497 O.2       1 UNK        -0.5181 
     37 C          26.8343   -0.5341   -6.7721 C.2       5 UNK         0.5014 
     38 O          27.7153   -0.3076   -7.5999 O.2       5 UNK        -0.5248 
     39 N          26.1751    0.4262   -6.1043 N.am      6 UNK        -0.4434 
     40 CA         26.4185    1.8718   -6.1881 C.3       6 UNK         0.0363 
     41 CB         25.4973    2.5985   -5.1967 C.3       6 UNK        -0.1936 
     42 C          26.2922    2.4861   -7.5961 C.2       6 UNK         0.5081 
     43 O          26.8117    3.5793   -7.8197 O.2       6 UNK        -0.5248 
     44 N          25.6659    1.7649   -8.5364 N.am      7 UNK        -0.4718 
     45 CA         25.6850    2.0600   -9.9727 C.3       7 UNK         0.0273 
     46 CB         24.7438    1.0821  -10.6939 C.3       7 UNK        -0.1935 
     47 C          27.0978    2.0090  -10.5949 C.2       7 UNK         0.5018 
     48 O          27.3229    2.6532  -11.6201 O.2       7 UNK        -0.5186 
     49 N          28.0209    1.2718   -9.9624 N.am      8 UNK        -0.4240 
     50 CA         29.4381    1.1918  -10.3026 C.3       8 UNK         0.0235 
     51 CB         29.7078   -0.1159  -11.0708 C.3       8 UNK        -0.2000 
     52 C          30.2657    1.3131   -9.0123 C.2       8 UNK         0.4941 
     53 O          31.1280    0.4720   -8.7508 O.2       8 UNK        -0.5273 
     54 N          29.9921    2.3667   -8.2237 N.am      9 UNK        -0.4262 
     55 CA         30.5856    2.6446   -6.9048 C.3       9 UNK         0.0264 
     56 CB         29.9923    3.9471   -6.3417 C.3       9 UNK        -0.1955 
     57 C          32.1251    2.7155   -6.8629 C.2       9 UNK         0.5031 
     58 O          32.7036    2.5137   -5.7946 O.2       9 UNK        -0.5390 
     59 N          32.7606    2.9760   -8.0146 N.am      10 UNK        -0.4204 
     60 CA         34.2115    2.9143   -8.2146 C.3       10 UNK         0.0237 
     61 CB         34.5507    3.4878   -9.6004 C.3       10 UNK        -0.1985 
     62 C          34.8042    1.4983   -8.0583 C.2       10 UNK         0.4970 
     63 O          36.0076    1.3843   -7.8228 O.2       10 UNK        -0.4914 
     64 N          33.9657    0.4580   -8.1812 N.am      11 UNK        -0.4285 
     65 CA         34.3067   -0.9600   -7.9905 C.3       11 UNK         0.1007 
     66 C          35.2062   -1.5795   -9.1038 C.2       11 UNK         0.5703 
     67 N          35.3624   -0.9387  -10.2566 N.am      11 UNK        -0.7361 
     68 O          35.7491   -2.6695   -8.9391 O.2       11 UNK        -0.4986 
     69 C69        34.8029   -1.2565   -6.5407 C.3       12 UNK        -0.0947 
     70 S70        34.0455   -2.7571   -5.8380 S.3       12 UNK        -0.2240 
     71 C71        32.6730   -2.0137   -4.9063 C.3       12 UNK         0.0194 
     72 H72        30.4636    1.0588   -3.2349 H         1 UNK         0.0906 
     73 H73        29.7078   -0.1097   -4.3186 H         1 UNK         0.0906 
     74 H74        28.7815    1.2708   -3.7280 H         1 UNK         0.0906 
     75 H75        29.2172   -2.0003   -3.2625 H         1 UNK         0.3140 
     76 H76        28.3765   -3.4632   -1.9428 H         1 UNK         0.1085 
     77 H77        30.5532   -2.3966   -0.5793 H         1 UNK         0.0836 
     78 H78        29.3520   -2.3260    0.6635 H         1 UNK         0.0836 
     79 H79        32.1425   -4.5567   -0.6232 H         1 UNK         0.0731 
     80 H80        31.4079   -6.0762   -1.0661 H         1 UNK         0.0731 
     81 H81        32.7243   -3.1452   -2.4246 H         1 UNK         0.1312 
     82 H82        30.5739   -3.2219   -6.1271 H         1 UNK         0.1406 
     83 H83        29.3697   -5.7807   -2.8987 H         1 UNK         0.1631 
     84 H84        28.5727   -6.1240   -5.3337 H         1 UNK         0.0717 
     85 H85        28.8214   -4.8423   -6.4921 H         1 UNK         0.0717 
     86 H86        27.1772   -1.9347   -4.4151 H         1 UNK         0.0934 
     87 H87        28.3979   -2.3547   -5.5773 H         1 UNK         0.0934 
     88 H88        26.6672   -2.5837   -7.3567 H         1 UNK         0.0739 
     89 H89        24.7846   -2.1479   -5.1773 H         1 UNK         0.3093 
     90 H90        21.9456   -1.7329   -7.2817 H         1 UNK         0.0818 
     91 H91        21.1391   -3.7231   -6.0328 H         1 UNK         0.0819 
     92 H92        22.2874   -4.2057   -7.2693 H         1 UNK         0.0819 
     93 H93        22.7923   -4.1482   -5.5867 H         1 UNK         0.0819 
     94 H94        22.3205   -1.9972   -4.4312 H         1 UNK         0.3041 
     95 H95        22.9210    1.4295   -3.7727 H         1 UNK         0.0784 
     96 H96        20.4363    1.4035   -4.0838 H         1 UNK         0.0793 
     97 H97        20.3408   -0.1424   -3.2517 H         1 UNK         0.0793 
     98 H98        20.8764    1.3003   -2.3885 H         1 UNK         0.0793 
     99 H99        22.4451   -0.5804   -1.9077 H         1 UNK         0.3024 
    100 H100       24.6292   -1.0352   -0.6184 H         1 UNK         0.1171 
    101 H101       24.3572   -3.5569   -0.6361 H         1 UNK         0.0786 
    102 H102       22.9403   -2.7880   -1.3176 H         1 UNK         0.0786 
    103 H103       24.1321   -3.5260   -2.3818 H         1 UNK         0.0786 
    104 H104       26.5215   -1.6056   -2.6553 H         1 UNK         0.2977 
    105 H105       25.5269    0.1293   -5.3789 H         1 UNK         0.3127 
    106 H106       27.4497    2.0297   -5.8690 H         1 UNK         0.0770 
    107 H107       24.4481    2.4856   -5.4700 H         1 UNK         0.0814 
    108 H108       25.7138    3.6674   -5.1742 H         1 UNK         0.0814 
    109 H109       25.6253    2.2216   -4.1817 H         1 UNK         0.0814 
    110 H110       25.2581    0.8829   -8.2590 H         1 UNK         0.2983 
    111 H111       25.3053    3.0746  -10.1111 H         1 UNK         0.0947 
    112 H112       24.7164    1.2839  -11.7657 H         1 UNK         0.0806 
    113 H113       23.7222    1.1676  -10.3229 H         1 UNK         0.0806 
    114 H114       25.0618    0.0465  -10.5639 H         1 UNK         0.0806 
    115 H115       27.7571    0.7707   -9.1144 H         1 UNK         0.3000 
    116 H116       29.7223    2.0325  -10.9390 H         1 UNK         0.0850 
    117 H117       29.1215   -0.1639  -11.9885 H         1 UNK         0.0810 
    118 H118       29.4608   -0.9913  -10.4685 H         1 UNK         0.0810 
    119 H119       30.7585   -0.1963  -11.3522 H         1 UNK         0.0810 
    120 H120       29.2554    2.9947   -8.5170 H         1 UNK         0.3040 
    121 H121       30.2914    1.8232   -6.2484 H         1 UNK         0.0766 
    122 H122       28.9130    3.8806   -6.2180 H         1 UNK         0.0812 
    123 H123       30.2028    4.7985   -6.9901 H         1 UNK         0.0812 
    124 H124       30.4092    4.1755   -5.3595 H         1 UNK         0.0812 
    125 H125       32.1958    3.1423   -8.8344 H         1 UNK         0.3205 
    126 H126       34.6794    3.5459   -7.4565 H         1 UNK         0.0754 
    127 H127       34.0907    2.9084  -10.4021 H         1 UNK         0.0769 
    128 H128       35.6282    3.4836   -9.7721 H         1 UNK         0.0769 
    129 H129       34.2149    4.5207   -9.6959 H         1 UNK         0.0769 
    130 H130       32.9865    0.6312   -8.3950 H         1 UNK         0.2981 
    131 H131       33.3466   -1.4597   -8.1242 H         1 UNK         0.0541 
    132 H132       34.9143   -0.0504  -10.4111 H         1 UNK         0.3459 
    133 H133       35.9370   -1.3490  -10.9758 H         1 UNK         0.3459 
    134 H134       34.5727   -0.4256   -5.8716 H         1 UNK         0.0612 
    135 H135       35.8891   -1.3563   -6.5039 H         1 UNK         0.0612 
    136 H136       32.1093   -1.3472   -5.5618 H         1 UNK         0.0624 
    137 H137       33.0736   -1.3922   -4.1038 H         1 UNK         0.0624 
@<TRIPOS>BOND
     1    1    2 1    
     2    1   72 1    
     3    1   73 1    
     4    1   74 1    
     5    2    3 2    
     6    2    4 am   BACKBONE|DICT|INTERRES
     7    4    5 1    
     8    4   75 1    
     9    5    6 1    
    10    5   35 1    
    11    5   76 1    
    12    6    7 1    
    13    6   77 1    
    14    6   78 1    
    15    7    8 1    
    16    8    9 1    
    17    8   79 1    
    18    8   80 1    
    19    9   10 ar   
    20    9   14 ar   
    21   10   11 ar   
    22   10   81 1    
    23   11   12 ar   
    24   11   71 1    
    25   12   13 ar   
    26   12   82 1    
    27   13   14 ar   
    28   13   15 1    
    29   14   83 1    
    30   15   16 1    
    31   15   84 1    
    32   15   85 1    
    33   16   17 1    
    34   17   18 1    
    35   17   86 1    
    36   17   87 1    
    37   18   19 1    
    38   18   37 1    
    39   18   88 1    
    40   19   20 am   BACKBONE|DICT|INTERRES
    41   19   89 1    
    42   20   21 2    
    43   20   22 1    
    44   22   23 1    
    45   22   24 1    
    46   22   90 1    
    47   23   91 1    
    48   23   92 1    
    49   23   93 1    
    50   24   25 am   BACKBONE|DICT|INTERRES
    51   24   94 1    
    52   25   26 2    
    53   25   27 1    
    54   27   28 1    
    55   27   29 1    
    56   27   95 1    
    57   28   96 1    
    58   28   97 1    
    59   28   98 1    
    60   29   30 am   BACKBONE|DICT|INTERRES
    61   29   99 1    
    62   30   31 2    
    63   30   32 1    
    64   32   33 1    
    65   32   34 1    
    66   32  100 1    
    67   33  101 1    
    68   33  102 1    
    69   33  103 1    
    70   34   35 am   BACKBONE|DICT|INTERRES
    71   34  104 1    
    72   35   36 2    
    73   37   38 2    
    74   37   39 am   BACKBONE|DICT|INTERRES
    75   39   40 1    
    76   39  105 1    
    77   40   41 1    
    78   40   42 1    
    79   40  106 1    
    80   41  107 1    
    81   41  108 1    
    82   41  109 1    
    83   42   43 2    
    84   42   44 am   BACKBONE|DICT|INTERRES
    85   44   45 1    
    86   44  110 1    
    87   45   46 1    
    88   45   47 1    
    89   45  111 1    
    90   46  112 1    
    91   46  113 1    
    92   46  114 1    
    93   47   48 2    
    94   47   49 am   BACKBONE|DICT|INTERRES
    95   49   50 1    
    96   49  115 1    
    97   50   51 1    
    98   50   52 1    
    99   50  116 1    
   100   51  117 1    
   101   51  118 1    
   102   51  119 1    
   103   52   53 2    
   104   52   54 am   BACKBONE|DICT|INTERRES
   105   54   55 1    
   106   54  120 1    
   107   55   56 1    
   108   55   57 1    
   109   55  121 1    
   110   56  122 1    
   111   56  123 1    
   112   56  124 1    
   113   57   58 2    
   114   57   59 am   BACKBONE|DICT|INTERRES
   115   59   60 1    
   116   59  125 1    
   117   60   61 1    
   118   60   62 1    
   119   60  126 1    
   120   61  127 1    
   121   61  128 1    
   122   61  129 1    
   123   62   63 2    
   124   62   64 am   BACKBONE|DICT|INTERRES
   125   64   65 1    
   126   64  130 1    
   127   65   66 1    
   128   65   69 1    
   129   65  131 1    
   130   66   67 am   BACKBONE|DICT|INTERRES
   131   66   68 2    
   132   67  132 1    
   133   67  133 1    
   134   69   70 1    
   135   69  134 1    
   136   69  135 1    
   137   70   71 1    
   138   71  136 1    
   139   71  137 1    
@<TRIPOS>SUBSTRUCTURE
     1 UNK         1 GROUP             0       ****    0 ROOT    
