@<TRIPOS>MOLECULE
3R137
137   139    1
SMALL
USER_CHARGES


@<TRIPOS>ATOM
      1 CA         31.0209   -5.4012   -4.0535 C.3       0 UNK        -0.2020 
      2 C          29.9693   -5.4130   -2.9543 C.2       0 UNK         0.4855 
      3 O          29.7842   -6.4354   -2.2939 O.2       0 UNK        -0.5197 
      4 N          29.2745   -4.2885   -2.7555 N.am      1 UNK        -0.4892 
      5 CA         28.1856   -4.1234   -1.7959 C.3       1 UNK         0.0835 
      6 C6         28.7010   -3.9555   -0.3283 C.3       12 UNK        -0.0855 
      7 S7         28.7157   -2.2833    0.4239 S.3       12 UNK        -0.2931 
      8 C8         30.4528   -1.7683    0.2393 C.3       12 UNK         0.0378 
      9 C9         30.6927   -1.0900   -1.1005 C.ar      12 UNK        -0.0802 
     10 C10        31.3269   -1.7747   -2.1408 C.ar      12 UNK        -0.0944 
     11 C11        31.5381   -1.1580   -3.3784 C.ar      12 UNK        -0.0787 
     12 C12        31.0931    0.1566   -3.5657 C.ar      12 UNK        -0.0862 
     13 C13        30.4759    0.8614   -2.5282 C.ar      12 UNK        -0.0733 
     14 C14        30.2860    0.2336   -1.2940 C.ar      12 UNK        -0.0832 
     15 C15        30.0320    2.3046   -2.7458 C.3       12 UNK         0.0240 
     16 S16        28.2538    2.5959   -2.4363 S.3       12 UNK        -0.2522 
     17 C17        27.4378    1.1733   -3.2334 C.3       12 UNK        -0.0967 
     18 CA         27.6096    1.1280   -4.7723 C.3       5 UNK         0.0660 
     19 N          27.5920   -0.2483   -5.2696 N.am      5 UNK        -0.4015 
     20 C          27.8088   -0.6285   -6.5360 C.2       4 UNK         0.4946 
     21 O          28.1136    0.1413   -7.4467 O.2       4 UNK        -0.5353 
     22 CA         27.6233   -2.1199   -6.8443 C.3       4 UNK         0.0277 
     23 CB         28.8832   -2.9120   -6.4663 C.3       4 UNK        -0.1981 
     24 N          26.4593   -2.6714   -6.1484 N.am      4 UNK        -0.4209 
     25 C          25.1876   -2.4008   -6.4769 C.2       3 UNK         0.4942 
     26 O          24.8596   -1.7251   -7.4518 O.2       3 UNK        -0.5208 
     27 CA         24.0988   -2.9497   -5.5386 C.3       3 UNK         0.0250 
     28 CB         23.7569   -4.4048   -5.8965 C.3       3 UNK        -0.1990 
     29 N          24.4641   -2.8638   -4.1208 N.am      3 UNK        -0.4232 
     30 C          24.6455   -1.7142   -3.4551 C.2       2 UNK         0.4993 
     31 O          24.5127   -0.6009   -3.9610 O.2       2 UNK        -0.5286 
     32 CA         25.0972   -1.8175   -1.9894 C.3       2 UNK         0.0209 
     33 CB         23.8830   -1.9808   -1.0617 C.3       2 UNK        -0.1931 
     34 N          26.0677   -2.8860   -1.7228 N.am      2 UNK        -0.4546 
     35 C          27.2590   -3.0120   -2.3246 C.2       1 UNK         0.5154 
     36 O          27.6268   -2.3037   -3.2687 O.2       1 UNK        -0.5181 
     37 C          26.5864    2.0185   -5.5045 C.2       5 UNK         0.5014 
     38 O          26.9669    3.0595   -6.0440 O.2       5 UNK        -0.5248 
     39 N          25.3293    1.5533   -5.5734 N.am      6 UNK        -0.4434 
     40 CA         24.2154    2.1938   -6.2816 C.3       6 UNK         0.0363 
     41 CB         22.9228    1.4112   -6.0017 C.3       6 UNK        -0.1936 
     42 C          24.4308    2.3377   -7.7991 C.2       6 UNK         0.5081 
     43 O          23.8727    3.2547   -8.4009 O.2       6 UNK        -0.5248 
     44 N          25.2642    1.4688   -8.3852 N.am      7 UNK        -0.4718 
     45 CA         25.7060    1.5192   -9.7813 C.3       7 UNK         0.0273 
     46 CB         25.9657    0.0819  -10.2657 C.3       7 UNK        -0.1935 
     47 C          26.9293    2.4400   -9.9921 C.2       7 UNK         0.5018 
     48 O          27.6472    2.2684  -10.9777 O.2       7 UNK        -0.5186 
     49 N          27.1382    3.4002   -9.0775 N.am      8 UNK        -0.4240 
     50 CA         28.2222    4.3874   -9.0283 C.3       8 UNK         0.0235 
     51 CB         28.2065    5.3108  -10.2664 C.3       8 UNK        -0.2000 
     52 C          29.5898    3.7339   -8.7640 C.2       8 UNK         0.4941 
     53 O          30.5635    4.0344   -9.4573 O.2       8 UNK        -0.5273 
     54 N          29.6225    2.8594   -7.7475 N.am      9 UNK        -0.4262 
     55 CA         30.7762    2.0853   -7.2740 C.3       9 UNK         0.0264 
     56 CB         31.8334    3.0050   -6.6283 C.3       9 UNK        -0.1955 
     57 C          31.3566    1.1597   -8.3585 C.2       9 UNK         0.5031 
     58 O          32.5610    1.1799   -8.6242 O.2       9 UNK        -0.5390 
     59 N          30.4859    0.3344   -8.9514 N.am      10 UNK        -0.4204 
     60 CA         30.8225   -0.6779   -9.9558 C.3       10 UNK         0.0237 
     61 CB         29.5686   -0.9795  -10.7964 C.3       10 UNK        -0.1985 
     62 C          31.4097   -1.9430   -9.2988 C.2       10 UNK         0.4970 
     63 O          30.8600   -3.0340   -9.4582 O.2       10 UNK        -0.4914 
     64 N          32.4933   -1.7668   -8.5342 N.am      11 UNK        -0.4285 
     65 CA         33.1397   -2.8126   -7.7254 C.3       11 UNK         0.1007 
     66 C          33.9011   -3.9009   -8.5375 C.2       11 UNK         0.5703 
     67 N          34.1609   -3.7129   -9.8261 N.am      11 UNK        -0.7361 
     68 O          34.2582   -4.9390   -7.9856 O.2       11 UNK        -0.4986 
     69 C69        34.0529   -2.2135   -6.6212 C.3       12 UNK        -0.0947 
     70 S70        33.2565   -0.9264   -5.6016 S.3       12 UNK        -0.2240 
     71 C71        32.2238   -1.9427   -4.4958 C.3       12 UNK         0.0194 
     72 H72        30.7709   -4.6928   -4.8410 H         1 UNK         0.0906 
     73 H73        31.9947   -5.1384   -3.6416 H         1 UNK         0.0906 
     74 H74        31.1012   -6.3872   -4.5108 H         1 UNK         0.0906 
     75 H75        29.4171   -3.4653   -3.3279 H         1 UNK         0.3140 
     76 H76        27.5920   -5.0399   -1.8385 H         1 UNK         0.1085 
     77 H77        29.6867   -4.4077   -0.2104 H         1 UNK         0.0836 
     78 H78        28.0584   -4.5544    0.3187 H         1 UNK         0.0836 
     79 H79        31.1183   -2.6222    0.3737 H         1 UNK         0.0731 
     80 H80        30.6956   -1.0695    1.0411 H         1 UNK         0.0731 
     81 H81        31.6529   -2.7938   -1.9847 H         1 UNK         0.1312 
     82 H82        31.2409    0.6409   -4.5185 H         1 UNK         0.1406 
     83 H83        29.8017    0.7700   -0.4891 H         1 UNK         0.1631 
     84 H84        30.2644    2.6311   -3.7602 H         1 UNK         0.0717 
     85 H85        30.6094    2.9521   -2.0848 H         1 UNK         0.0717 
     86 H86        27.8448    0.2716   -2.7753 H         1 UNK         0.0934 
     87 H87        26.3839    1.1776   -2.9500 H         1 UNK         0.0934 
     88 H88        28.5979    1.5123   -5.0208 H         1 UNK         0.0739 
     89 H89        27.4152   -0.9723   -4.5773 H         1 UNK         0.3093 
     90 H90        27.4659   -2.2214   -7.9204 H         1 UNK         0.0818 
     91 H91        28.8047   -3.9546   -6.7747 H         1 UNK         0.0819 
     92 H92        29.7638   -2.4956   -6.9541 H         1 UNK         0.0819 
     93 H93        29.0687   -2.8890   -5.3940 H         1 UNK         0.0819 
     94 H94        26.6380   -3.1965   -5.3043 H         1 UNK         0.3041 
     95 H95        23.2030   -2.3428   -5.6878 H         1 UNK         0.0784 
     96 H96        23.4638   -4.4892   -6.9441 H         1 UNK         0.0793 
     97 H97        24.6055   -5.0722   -5.7410 H         1 UNK         0.0793 
     98 H98        22.9237   -4.7751   -5.2988 H         1 UNK         0.0793 
     99 H99        24.5946   -3.7325   -3.6231 H         1 UNK         0.3024 
    100 H100       25.5867   -0.8738   -1.7401 H         1 UNK         0.1171 
    101 H101       24.1758   -1.9321   -0.0126 H         1 UNK         0.0786 
    102 H102       23.1544   -1.1858   -1.2287 H         1 UNK         0.0786 
    103 H103       23.3724   -2.9307   -1.2250 H         1 UNK         0.0786 
    104 H104       25.8497   -3.5053   -0.9552 H         1 UNK         0.2977 
    105 H105       25.1005    0.6947   -5.0714 H         1 UNK         0.3127 
    106 H106       24.1038    3.2001   -5.8727 H         1 UNK         0.0770 
    107 H107       22.9935    0.3819   -6.3564 H         1 UNK         0.0814 
    108 H108       22.0685    1.8721   -6.4993 H         1 UNK         0.0814 
    109 H109       22.6994    1.3823   -4.9350 H         1 UNK         0.0814 
    110 H110       25.6863    0.7493   -7.8125 H         1 UNK         0.2983 
    111 H111       24.9012    1.9324  -10.3930 H         1 UNK         0.0947 
    112 H112       26.7570   -0.3949   -9.6897 H         1 UNK         0.0806 
    113 H113       26.2616    0.0601  -11.3153 H         1 UNK         0.0806 
    114 H114       25.0713   -0.5341  -10.1701 H         1 UNK         0.0806 
    115 H115       26.5177    3.4108   -8.2779 H         1 UNK         0.3000 
    116 H116       28.0170    5.0125   -8.1577 H         1 UNK         0.0850 
    117 H117       28.9265    6.1223  -10.1539 H         1 UNK         0.0810 
    118 H118       27.2264    5.7653  -10.4105 H         1 UNK         0.0810 
    119 H119       28.4664    4.7748  -11.1795 H         1 UNK         0.0810 
    120 H120       28.7454    2.6746   -7.2730 H         1 UNK         0.3040 
    121 H121       30.3992    1.4244   -6.4953 H         1 UNK         0.0766 
    122 H122       32.6360    2.4184   -6.1791 H         1 UNK         0.0812 
    123 H123       31.3990    3.6189   -5.8398 H         1 UNK         0.0812 
    124 H124       32.2902    3.6723   -7.3598 H         1 UNK         0.0812 
    125 H125       29.5269    0.3364   -8.6047 H         1 UNK         0.3205 
    126 H126       31.5838   -0.2717  -10.6251 H         1 UNK         0.0754 
    127 H127       29.7996   -1.6691  -11.6092 H         1 UNK         0.0769 
    128 H128       29.1631   -0.0729  -11.2460 H         1 UNK         0.0769 
    129 H129       28.7835   -1.4372  -10.1942 H         1 UNK         0.0769 
    130 H130       32.8667   -0.8275   -8.4441 H         1 UNK         0.2981 
    131 H131       32.3361   -3.3481   -7.2167 H         1 UNK         0.0541 
    132 H132       34.6511   -4.4273  -10.3408 H         1 UNK         0.3459 
    133 H133       33.8714   -2.8656  -10.2870 H         1 UNK         0.3459 
    134 H134       34.4207   -2.9985   -5.9577 H         1 UNK         0.0612 
    135 H135       34.9382   -1.7639   -7.0745 H         1 UNK         0.0612 
    136 H136       31.4590   -2.4353   -5.0931 H         1 UNK         0.0624 
    137 H137       32.8494   -2.7273   -4.0677 H         1 UNK         0.0624 
@<TRIPOS>BOND
     1    1    2 1    
     2    1   72 1    
     3    1   73 1    
     4    1   74 1    
     5    2    3 2    
     6    2    4 am   BACKBONE|DICT|INTERRES
     7    4    5 1    
     8    4   75 1    
     9    5    6 1    
    10    5   35 1    
    11    5   76 1    
    12    6    7 1    
    13    6   77 1    
    14    6   78 1    
    15    7    8 1    
    16    8    9 1    
    17    8   79 1    
    18    8   80 1    
    19    9   10 ar   
    20    9   14 ar   
    21   10   11 ar   
    22   10   81 1    
    23   11   12 ar   
    24   11   71 1    
    25   12   13 ar   
    26   12   82 1    
    27   13   14 ar   
    28   13   15 1    
    29   14   83 1    
    30   15   16 1    
    31   15   84 1    
    32   15   85 1    
    33   16   17 1    
    34   17   18 1    
    35   17   86 1    
    36   17   87 1    
    37   18   19 1    
    38   18   37 1    
    39   18   88 1    
    40   19   20 am   BACKBONE|DICT|INTERRES
    41   19   89 1    
    42   20   21 2    
    43   20   22 1    
    44   22   23 1    
    45   22   24 1    
    46   22   90 1    
    47   23   91 1    
    48   23   92 1    
    49   23   93 1    
    50   24   25 am   BACKBONE|DICT|INTERRES
    51   24   94 1    
    52   25   26 2    
    53   25   27 1    
    54   27   28 1    
    55   27   29 1    
    56   27   95 1    
    57   28   96 1    
    58   28   97 1    
    59   28   98 1    
    60   29   30 am   BACKBONE|DICT|INTERRES
    61   29   99 1    
    62   30   31 2    
    63   30   32 1    
    64   32   33 1    
    65   32   34 1    
    66   32  100 1    
    67   33  101 1    
    68   33  102 1    
    69   33  103 1    
    70   34   35 am   BACKBONE|DICT|INTERRES
    71   34  104 1    
    72   35   36 2    
    73   37   38 2    
    74   37   39 am   BACKBONE|DICT|INTERRES
    75   39   40 1    
    76   39  105 1    
    77   40   41 1    
    78   40   42 1    
    79   40  106 1    
    80   41  107 1    
    81   41  108 1    
    82   41  109 1    
    83   42   43 2    
    84   42   44 am   BACKBONE|DICT|INTERRES
    85   44   45 1    
    86   44  110 1    
    87   45   46 1    
    88   45   47 1    
    89   45  111 1    
    90   46  112 1    
    91   46  113 1    
    92   46  114 1    
    93   47   48 2    
    94   47   49 am   BACKBONE|DICT|INTERRES
    95   49   50 1    
    96   49  115 1    
    97   50   51 1    
    98   50   52 1    
    99   50  116 1    
   100   51  117 1    
   101   51  118 1    
   102   51  119 1    
   103   52   53 2    
   104   52   54 am   BACKBONE|DICT|INTERRES
   105   54   55 1    
   106   54  120 1    
   107   55   56 1    
   108   55   57 1    
   109   55  121 1    
   110   56  122 1    
   111   56  123 1    
   112   56  124 1    
   113   57   58 2    
   114   57   59 am   BACKBONE|DICT|INTERRES
   115   59   60 1    
   116   59  125 1    
   117   60   61 1    
   118   60   62 1    
   119   60  126 1    
   120   61  127 1    
   121   61  128 1    
   122   61  129 1    
   123   62   63 2    
   124   62   64 am   BACKBONE|DICT|INTERRES
   125   64   65 1    
   126   64  130 1    
   127   65   66 1    
   128   65   69 1    
   129   65  131 1    
   130   66   67 am   BACKBONE|DICT|INTERRES
   131   66   68 2    
   132   67  132 1    
   133   67  133 1    
   134   69   70 1    
   135   69  134 1    
   136   69  135 1    
   137   70   71 1    
   138   71  136 1    
   139   71  137 1    
@<TRIPOS>SUBSTRUCTURE
     1 UNK         1 GROUP             0       ****    0 ROOT    
