@<TRIPOS>MOLECULE
3R137
137   139    1
SMALL
USER_CHARGES


@<TRIPOS>ATOM
      1 CA         26.4909   -4.1686    2.5671 C.3       0 UNK        -0.2020 
      2 C          26.7854   -3.3827    1.2986 C.2       0 UNK         0.4855 
      3 O          27.2004   -2.2251    1.3747 O.2       0 UNK        -0.5197 
      4 N          26.5711   -3.9957    0.1277 N.am      1 UNK        -0.4892 
      5 CA         26.7941   -3.3985   -1.1938 C.3       1 UNK         0.0835 
      6 C6         27.0543   -4.4757   -2.2815 C.3       12 UNK        -0.0855 
      7 S7         28.4797   -5.5503   -1.8922 S.3       12 UNK        -0.2931 
      8 C8         29.4320   -5.5172   -3.4555 C.3       12 UNK         0.0378 
      9 C9         30.1245   -4.1956   -3.8030 C.ar      12 UNK        -0.0802 
     10 C10        30.6871   -4.0545   -5.0767 C.ar      12 UNK        -0.0944 
     11 C11        31.3430   -2.8774   -5.4545 C.ar      12 UNK        -0.0787 
     12 C12        31.4067   -1.8158   -4.5443 C.ar      12 UNK        -0.0862 
     13 C13        30.8549   -1.9389   -3.2667 C.ar      12 UNK        -0.0733 
     14 C14        30.2347   -3.1340   -2.8967 C.ar      12 UNK        -0.0832 
     15 C15        30.9229   -0.7803   -2.2821 C.3       12 UNK         0.0240 
     16 S16        29.9564    0.6591   -2.8400 S.3       12 UNK        -0.2522 
     17 C17        28.2877   -0.0447   -3.0878 C.3       12 UNK        -0.0967 
     18 CA         27.9333   -0.2571   -4.5835 C.3       5 UNK         0.0660 
     19 N          26.7318   -1.0807   -4.7636 N.am      5 UNK        -0.4015 
     20 C          26.3434   -1.6040   -5.9375 C.2       4 UNK         0.4946 
     21 O          26.9977   -1.5174   -6.9745 O.2       4 UNK        -0.5353 
     22 CA         24.9664   -2.2847   -5.9918 C.3       4 UNK         0.0277 
     23 CB         25.0713   -3.7900   -5.7036 C.3       4 UNK        -0.1981 
     24 N          24.0001   -1.6541   -5.0897 N.am      4 UNK        -0.4209 
     25 C          23.4420   -0.4584   -5.3341 C.2       3 UNK         0.4942 
     26 O          23.6513    0.1902   -6.3582 O.2       3 UNK        -0.5208 
     27 CA         22.5385    0.1467   -4.2459 C.3       3 UNK         0.0250 
     28 CB         21.0814   -0.2968   -4.4491 C.3       3 UNK        -0.1990 
     29 N          22.9606   -0.1709   -2.8797 N.am      3 UNK        -0.4232 
     30 C          24.1496    0.1416   -2.3460 C.2       2 UNK         0.4993 
     31 O          25.0308    0.7465   -2.9591 O.2       2 UNK        -0.5286 
     32 CA         24.4298   -0.3382   -0.9076 C.3       2 UNK         0.0209 
     33 CB         23.1814   -0.8731   -0.1694 C.3       2 UNK        -0.1931 
     34 N          25.5041   -1.3389   -0.8427 N.am      2 UNK        -0.4546 
     35 C          25.6179   -2.4665   -1.5607 C.2       1 UNK         0.5154 
     36 O          24.8333   -2.7880   -2.4552 O.2       1 UNK        -0.5181 
     37 C          27.7986    1.0792   -5.3403 C.2       5 UNK         0.5014 
     38 O          28.7460    1.4951   -6.0048 O.2       5 UNK        -0.5248 
     39 N          26.6166    1.7079   -5.2548 N.am      6 UNK        -0.4434 
     40 CA         26.2768    2.9220   -5.9986 C.3       6 UNK         0.0363 
     41 CB         24.9333    3.4767   -5.4989 C.3       6 UNK        -0.1936 
     42 C          26.2509    2.7017   -7.5223 C.2       6 UNK         0.5081 
     43 O          26.7822    3.5321   -8.2596 O.2       6 UNK        -0.5248 
     44 N          25.6448    1.5919   -7.9680 N.am      7 UNK        -0.4718 
     45 CA         25.5347    1.2209   -9.3806 C.3       7 UNK         0.0273 
     46 CB         24.5181    0.0794   -9.5412 C.3       7 UNK        -0.1935 
     47 C          26.8807    0.8388  -10.0170 C.2       7 UNK         0.5018 
     48 O          27.1931    1.3302  -11.1020 O.2       7 UNK        -0.5186 
     49 N          27.6530   -0.0229   -9.3416 N.am      8 UNK        -0.4240 
     50 CA         28.9252   -0.5612   -9.8317 C.3       8 UNK         0.0235 
     51 CB         28.9913   -2.0669   -9.5142 C.3       8 UNK        -0.2000 
     52 C          30.1449    0.1991   -9.2808 C.2       8 UNK         0.4941 
     53 O          31.2278   -0.3811   -9.2074 O.2       8 UNK        -0.5273 
     54 N          29.9783    1.4871   -8.9408 N.am      9 UNK        -0.4262 
     55 CA         30.9851    2.3700   -8.3274 C.3       9 UNK         0.0264 
     56 CB         30.3739    3.7680   -8.1376 C.3       9 UNK        -0.1955 
     57 C          32.3327    2.4759   -9.0701 C.2       9 UNK         0.5031 
     58 O          33.3375    2.8332   -8.4528 O.2       9 UNK        -0.5390 
     59 N          32.3426    2.1323  -10.3647 N.am      10 UNK        -0.4204 
     60 CA         33.5299    1.9894  -11.2077 C.3       10 UNK         0.0237 
     61 CB         33.0795    1.7676  -12.6616 C.3       10 UNK        -0.1985 
     62 C          34.5019    0.8734  -10.7675 C.2       10 UNK         0.4970 
     63 O          35.6363    0.8723  -11.2482 O.2       10 UNK        -0.4914 
     64 N          34.0746   -0.0458   -9.8847 N.am      11 UNK        -0.4285 
     65 CA         34.9280   -1.1013   -9.3112 C.3       11 UNK         0.1007 
     66 C          36.1220   -0.5994   -8.4409 C.2       11 UNK         0.5703 
     67 N          36.1212    0.6408   -7.9630 N.am      11 UNK        -0.7361 
     68 O          37.0689   -1.3477   -8.2087 O.2       11 UNK        -0.4986 
     69 C69        34.0968   -2.2104   -8.6042 C.3       12 UNK        -0.0947 
     70 S70        33.4667   -1.7720   -6.9442 S.3       12 UNK        -0.2240 
     71 C71        31.9445   -2.7748   -6.8562 C.3       12 UNK         0.0194 
     72 H72        25.7256   -3.6608    3.1534 H         1 UNK         0.0906 
     73 H73        26.1392   -5.1770    2.3500 H         1 UNK         0.0906 
     74 H74        27.3910   -4.2473    3.1762 H         1 UNK         0.0906 
     75 H75        26.2237   -4.9446    0.1196 H         1 UNK         0.3140 
     76 H76        27.6855   -2.7727   -1.1348 H         1 UNK         0.1085 
     77 H77        27.2339   -3.9926   -3.2435 H         1 UNK         0.0836 
     78 H78        26.1773   -5.1119   -2.4166 H         1 UNK         0.0836 
     79 H79        28.7647   -5.8014   -4.2709 H         1 UNK         0.0731 
     80 H80        30.1952   -6.2946   -3.3997 H         1 UNK         0.0731 
     81 H81        30.6175   -4.8733   -5.7803 H         1 UNK         0.1312 
     82 H82        31.8796   -0.8851   -4.8259 H         1 UNK         0.1406 
     83 H83        29.8383   -3.2262   -1.8971 H         1 UNK         0.1631 
     84 H84        31.9636   -0.4791   -2.1551 H         1 UNK         0.0717 
     85 H85        30.5688   -1.0819   -1.2950 H         1 UNK         0.0717 
     86 H86        28.2287   -0.9911   -2.5540 H         1 UNK         0.0934 
     87 H87        27.5680    0.6147   -2.6012 H         1 UNK         0.0934 
     88 H88        28.7556   -0.8057   -5.0478 H         1 UNK         0.0739 
     89 H89        26.0905   -1.1269   -3.9846 H         1 UNK         0.3093 
     90 H90        24.5943   -2.1780   -7.0128 H         1 UNK         0.0818 
     91 H91        25.3960   -3.9923   -4.6854 H         1 UNK         0.0819 
     92 H92        24.1123   -4.2868   -5.8509 H         1 UNK         0.0819 
     93 H93        25.7883   -4.2655   -6.3744 H         1 UNK         0.0819 
     94 H94        23.8408   -2.1072   -4.1957 H         1 UNK         0.3041 
     95 H95        22.5824    1.2323   -4.3549 H         1 UNK         0.0784 
     96 H96        20.7358   -0.0502   -5.4542 H         1 UNK         0.0793 
     97 H97        20.9642   -1.3735   -4.3192 H         1 UNK         0.0793 
     98 H98        20.4123    0.2021   -3.7478 H         1 UNK         0.0793 
     99 H99        22.3086   -0.6938   -2.3131 H         1 UNK         0.3024 
    100 H100       24.7849    0.5403   -0.3661 H         1 UNK         0.1171 
    101 H101       23.4155   -1.1005    0.8709 H         1 UNK         0.0786 
    102 H102       22.3784   -0.1346   -0.1568 H         1 UNK         0.0786 
    103 H103       22.7936   -1.7872   -0.6211 H         1 UNK         0.0786 
    104 H104       26.1852   -1.2049   -0.1014 H         1 UNK         0.2977 
    105 H105       25.9108    1.3322   -4.6275 H         1 UNK         0.3127 
    106 H106       27.0490    3.6645   -5.7860 H         1 UNK         0.0770 
    107 H107       24.1134    2.7832   -5.6853 H         1 UNK         0.0814 
    108 H108       24.6883    4.4125   -6.0028 H         1 UNK         0.0814 
    109 H109       24.9615    3.6816   -4.4285 H         1 UNK         0.0814 
    110 H110       25.1649    0.9943   -7.3003 H         1 UNK         0.2983 
    111 H111       25.1515    2.0888   -9.9221 H         1 UNK         0.0947 
    112 H112       24.4006   -0.1951  -10.5903 H         1 UNK         0.0806 
    113 H113       23.5348    0.3691   -9.1701 H         1 UNK         0.0806 
    114 H114       24.8283   -0.8159   -9.0021 H         1 UNK         0.0806 
    115 H115       27.3353   -0.3849   -8.4437 H         1 UNK         0.3000 
    116 H116       28.9696   -0.4621  -10.9182 H         1 UNK         0.0850 
    117 H117       29.8801   -2.5244   -9.9508 H         1 UNK         0.0810 
    118 H118       28.1266   -2.5952   -9.9156 H         1 UNK         0.0810 
    119 H119       29.0247   -2.2501   -8.4405 H         1 UNK         0.0810 
    120 H120       29.0470    1.8705   -9.0230 H         1 UNK         0.3040 
    121 H121       31.2038    1.9565   -7.3408 H         1 UNK         0.0766 
    122 H122       31.0872    4.4492   -7.6714 H         1 UNK         0.0812 
    123 H123       29.4972    3.7316   -7.4906 H         1 UNK         0.0812 
    124 H124       30.0717    4.2090   -9.0882 H         1 UNK         0.0812 
    125 H125       31.4654    1.8416  -10.7703 H         1 UNK         0.3205 
    126 H126       34.0820    2.9301  -11.1591 H         1 UNK         0.0754 
    127 H127       33.9377    1.6977  -13.3316 H         1 UNK         0.0769 
    128 H128       32.4619    2.5927  -13.0172 H         1 UNK         0.0769 
    129 H129       32.5061    0.8459  -12.7696 H         1 UNK         0.0769 
    130 H130       33.1141   -0.0196   -9.5524 H         1 UNK         0.2981 
    131 H131       35.3959   -1.5856  -10.1704 H         1 UNK         0.0541 
    132 H132       35.3393    1.2545   -8.1397 H         1 UNK         0.3459 
    133 H133       36.8985    0.9575   -7.4060 H         1 UNK         0.3459 
    134 H134       33.2576   -2.4999   -9.2389 H         1 UNK         0.0612 
    135 H135       34.7055   -3.1093   -8.4939 H         1 UNK         0.0612 
    136 H136       31.1987   -2.3507   -7.5253 H         1 UNK         0.0624 
    137 H137       32.1728   -3.7728   -7.2333 H         1 UNK         0.0624 
@<TRIPOS>BOND
     1    1    2 1    
     2    1   72 1    
     3    1   73 1    
     4    1   74 1    
     5    2    3 2    
     6    2    4 am   BACKBONE|DICT|INTERRES
     7    4    5 1    
     8    4   75 1    
     9    5    6 1    
    10    5   35 1    
    11    5   76 1    
    12    6    7 1    
    13    6   77 1    
    14    6   78 1    
    15    7    8 1    
    16    8    9 1    
    17    8   79 1    
    18    8   80 1    
    19    9   10 ar   
    20    9   14 ar   
    21   10   11 ar   
    22   10   81 1    
    23   11   12 ar   
    24   11   71 1    
    25   12   13 ar   
    26   12   82 1    
    27   13   14 ar   
    28   13   15 1    
    29   14   83 1    
    30   15   16 1    
    31   15   84 1    
    32   15   85 1    
    33   16   17 1    
    34   17   18 1    
    35   17   86 1    
    36   17   87 1    
    37   18   19 1    
    38   18   37 1    
    39   18   88 1    
    40   19   20 am   BACKBONE|DICT|INTERRES
    41   19   89 1    
    42   20   21 2    
    43   20   22 1    
    44   22   23 1    
    45   22   24 1    
    46   22   90 1    
    47   23   91 1    
    48   23   92 1    
    49   23   93 1    
    50   24   25 am   BACKBONE|DICT|INTERRES
    51   24   94 1    
    52   25   26 2    
    53   25   27 1    
    54   27   28 1    
    55   27   29 1    
    56   27   95 1    
    57   28   96 1    
    58   28   97 1    
    59   28   98 1    
    60   29   30 am   BACKBONE|DICT|INTERRES
    61   29   99 1    
    62   30   31 2    
    63   30   32 1    
    64   32   33 1    
    65   32   34 1    
    66   32  100 1    
    67   33  101 1    
    68   33  102 1    
    69   33  103 1    
    70   34   35 am   BACKBONE|DICT|INTERRES
    71   34  104 1    
    72   35   36 2    
    73   37   38 2    
    74   37   39 am   BACKBONE|DICT|INTERRES
    75   39   40 1    
    76   39  105 1    
    77   40   41 1    
    78   40   42 1    
    79   40  106 1    
    80   41  107 1    
    81   41  108 1    
    82   41  109 1    
    83   42   43 2    
    84   42   44 am   BACKBONE|DICT|INTERRES
    85   44   45 1    
    86   44  110 1    
    87   45   46 1    
    88   45   47 1    
    89   45  111 1    
    90   46  112 1    
    91   46  113 1    
    92   46  114 1    
    93   47   48 2    
    94   47   49 am   BACKBONE|DICT|INTERRES
    95   49   50 1    
    96   49  115 1    
    97   50   51 1    
    98   50   52 1    
    99   50  116 1    
   100   51  117 1    
   101   51  118 1    
   102   51  119 1    
   103   52   53 2    
   104   52   54 am   BACKBONE|DICT|INTERRES
   105   54   55 1    
   106   54  120 1    
   107   55   56 1    
   108   55   57 1    
   109   55  121 1    
   110   56  122 1    
   111   56  123 1    
   112   56  124 1    
   113   57   58 2    
   114   57   59 am   BACKBONE|DICT|INTERRES
   115   59   60 1    
   116   59  125 1    
   117   60   61 1    
   118   60   62 1    
   119   60  126 1    
   120   61  127 1    
   121   61  128 1    
   122   61  129 1    
   123   62   63 2    
   124   62   64 am   BACKBONE|DICT|INTERRES
   125   64   65 1    
   126   64  130 1    
   127   65   66 1    
   128   65   69 1    
   129   65  131 1    
   130   66   67 am   BACKBONE|DICT|INTERRES
   131   66   68 2    
   132   67  132 1    
   133   67  133 1    
   134   69   70 1    
   135   69  134 1    
   136   69  135 1    
   137   70   71 1    
   138   71  136 1    
   139   71  137 1    
@<TRIPOS>SUBSTRUCTURE
     1 UNK         1 GROUP             0       ****    0 ROOT    
