@<TRIPOS>MOLECULE
3R137
137   139    1
SMALL
USER_CHARGES


@<TRIPOS>ATOM
      1 CA         24.9680   -4.9160    2.0030 C.3       0 UNK        -0.2020 
      2 C          25.6546   -3.6248    1.5837 C.2       0 UNK         0.4855 
      3 O          25.5189   -2.6100    2.2676 O.2       0 UNK        -0.5197 
      4 N          26.3938   -3.6571    0.4670 N.am      1 UNK        -0.4892 
      5 CA         27.1279   -2.5133   -0.0941 C.3       1 UNK         0.0835 
      6 C6         28.1042   -2.9535   -1.2118 C.3       12 UNK        -0.0855 
      7 S7         29.3643   -4.1234   -0.6054 S.3       12 UNK        -0.2931 
      8 C8         30.9002   -3.3348   -1.2044 C.3       12 UNK         0.0378 
      9 C9         31.0899   -3.3369   -2.7241 C.ar      12 UNK        -0.0802 
     10 C10        31.9810   -2.4190   -3.2890 C.ar      12 UNK        -0.0944 
     11 C11        32.2406   -2.4212   -4.6631 C.ar      12 UNK        -0.0787 
     12 C12        31.5848   -3.3416   -5.4856 C.ar      12 UNK        -0.0862 
     13 C13        30.6856   -4.2631   -4.9396 C.ar      12 UNK        -0.0733 
     14 C14        30.4478   -4.2586   -3.5620 C.ar      12 UNK        -0.0832 
     15 C15        30.0106   -5.3048   -5.8227 C.3       12 UNK         0.0240 
     16 S16        28.9389   -4.5748   -7.0989 S.3       12 UNK        -0.2522 
     17 C17        27.6044   -3.8091   -6.1159 C.3       12 UNK        -0.0967 
     18 CA         27.1060   -2.5036   -6.7841 C.3       5 UNK         0.0660 
     19 N          25.7084   -2.2016   -6.4798 N.am      5 UNK        -0.4015 
     20 C          24.6993   -2.3639   -7.3474 C.2       4 UNK         0.4946 
     21 O          24.7842   -3.0329   -8.3780 O.2       4 UNK        -0.5353 
     22 CA         23.3703   -1.6347   -7.0574 C.3       4 UNK         0.0277 
     23 CB         22.3066   -2.6342   -6.5736 C.3       4 UNK        -0.1981 
     24 N          23.4602   -0.5355   -6.0911 N.am      4 UNK        -0.4209 
     25 C          24.2858    0.5209   -6.1442 C.2       3 UNK         0.4942 
     26 O          25.0541    0.7550   -7.0788 O.2       3 UNK        -0.5208 
     27 CA         24.3401    1.4118   -4.8894 C.3       3 UNK         0.0250 
     28 CB         23.4073    2.6215   -5.0535 C.3       3 UNK        -0.1990 
     29 N          24.0236    0.7183   -3.6307 N.am      3 UNK        -0.4232 
     30 C          24.6099   -0.3985   -3.1714 C.2       2 UNK         0.4993 
     31 O          25.4826   -1.0218   -3.7869 O.2       2 UNK        -0.5286 
     32 CA         24.0714   -0.9449   -1.8391 C.3       2 UNK         0.0209 
     33 CB         22.7738   -1.7359   -2.0754 C.3       2 UNK        -0.1931 
     34 N          25.0399   -1.8215   -1.1811 N.am      2 UNK        -0.4546 
     35 C          26.1876   -1.4119   -0.6238 C.2       1 UNK         0.5154 
     36 O          26.5134   -0.2286   -0.5167 O.2       1 UNK        -0.5181 
     37 C          27.9996   -1.2896   -6.4685 C.2       5 UNK         0.5014 
     38 O          28.8225   -0.9301   -7.3085 O.2       5 UNK        -0.5248 
     39 N          27.8108   -0.6479   -5.3035 N.am      6 UNK        -0.4434 
     40 CA         28.6778    0.4234   -4.7933 C.3       6 UNK         0.0363 
     41 CB         28.2553    0.7904   -3.3630 C.3       6 UNK        -0.1936 
     42 C          28.7510    1.6921   -5.6633 C.2       6 UNK         0.5081 
     43 O          29.7542    2.4019   -5.5936 O.2       6 UNK        -0.5248 
     44 N          27.7053    1.9643   -6.4537 N.am      7 UNK        -0.4718 
     45 CA         27.6971    3.0246   -7.4612 C.3       7 UNK         0.0273 
     46 CB         26.4116    3.8600   -7.3413 C.3       7 UNK        -0.1935 
     47 C          27.8286    2.4140   -8.8612 C.2       7 UNK         0.5018 
     48 O          28.6255    2.9084   -9.6581 O.2       7 UNK        -0.5186 
     49 N          27.0674    1.3424   -9.1319 N.am      8 UNK        -0.4240 
     50 CA         26.9894    0.6668  -10.4315 C.3       8 UNK         0.0235 
     51 CB         25.9509   -0.4604  -10.3556 C.3       8 UNK        -0.2000 
     52 C          28.3277    0.1234  -10.9651 C.2       8 UNK         0.4941 
     53 O          28.5576    0.1943  -12.1730 O.2       8 UNK        -0.5273 
     54 N          29.1910   -0.3873  -10.0755 N.am      9 UNK        -0.4262 
     55 CA         30.5281   -0.8829  -10.4176 C.3       9 UNK         0.0264 
     56 CB         30.9111   -2.0174   -9.4500 C.3       9 UNK        -0.1955 
     57 C          31.6025    0.2201  -10.4012 C.2       9 UNK         0.5031 
     58 O          32.7686   -0.0932  -10.6482 O.2       9 UNK        -0.5390 
     59 N          31.2269    1.4673  -10.0729 N.am      10 UNK        -0.4204 
     60 CA         32.0549    2.6718   -9.8974 C.3       10 UNK         0.0237 
     61 CB         32.7949    3.0489  -11.1958 C.3       10 UNK        -0.1985 
     62 C          33.0218    2.6228   -8.6980 C.2       10 UNK         0.4970 
     63 O          33.1587    3.6326   -8.0059 O.2       10 UNK        -0.4914 
     64 N          33.6531    1.4654   -8.4696 N.am      11 UNK        -0.4285 
     65 CA         34.6002    1.1660   -7.3857 C.3       11 UNK         0.1007 
     66 C          35.9121    2.0074   -7.4706 C.2       11 UNK         0.5703 
     67 N          36.6798    2.1141   -6.3932 N.am      11 UNK        -0.7361 
     68 O          36.2794    2.5229   -8.5258 O.2       11 UNK        -0.4986 
     69 C69        33.9260    1.1754   -5.9802 C.3       12 UNK        -0.0947 
     70 S70        32.4830    0.0619   -5.8585 S.3       12 UNK        -0.2240 
     71 C71        33.2649   -1.4582   -5.2438 C.3       12 UNK         0.0194 
     72 H72        25.1797   -5.7338    1.3144 H         1 UNK         0.0906 
     73 H73        25.3040   -5.2140    2.9958 H         1 UNK         0.0906 
     74 H74        23.8884   -4.7726    2.0374 H         1 UNK         0.0906 
     75 H75        26.5016   -4.5288   -0.0327 H         1 UNK         0.3140 
     76 H76        27.7125   -2.0664    0.7135 H         1 UNK         0.1085 
     77 H77        27.5661   -3.4213   -2.0389 H         1 UNK         0.0836 
     78 H78        28.6100   -2.0855   -1.6366 H         1 UNK         0.0836 
     79 H79        30.9356   -2.3119   -0.8258 H         1 UNK         0.0731 
     80 H80        31.7470   -3.8564   -0.7566 H         1 UNK         0.0731 
     81 H81        32.4960   -1.7122   -2.6522 H         1 UNK         0.1312 
     82 H82        31.7824   -3.3502   -6.5489 H         1 UNK         0.1406 
     83 H83        29.7742   -4.9935   -3.1448 H         1 UNK         0.1631 
     84 H84        29.4214   -6.0042   -5.2276 H         1 UNK         0.0717 
     85 H85        30.7819   -5.8988   -6.3148 H         1 UNK         0.0717 
     86 H86        26.7931   -4.5367   -6.0613 H         1 UNK         0.0934 
     87 H87        27.9225   -3.6371   -5.0859 H         1 UNK         0.0934 
     88 H88        27.1862   -2.6359   -7.8657 H         1 UNK         0.0739 
     89 H89        25.5324   -1.6810   -5.6261 H         1 UNK         0.3093 
     90 H90        23.0350   -1.2031   -8.0026 H         1 UNK         0.0818 
     91 H91        21.3316   -2.1583   -6.4668 H         1 UNK         0.0819 
     92 H92        22.1869   -3.4531   -7.2847 H         1 UNK         0.0819 
     93 H93        22.5748   -3.0747   -5.6124 H         1 UNK         0.0819 
     94 H94        22.8814   -0.6240   -5.2693 H         1 UNK         0.3041 
     95 H95        25.3621    1.7833   -4.8025 H         1 UNK         0.0784 
     96 H96        23.6233    3.1630   -5.9754 H         1 UNK         0.0793 
     97 H97        22.3592    2.3218   -5.0915 H         1 UNK         0.0793 
     98 H98        23.5257    3.3287   -4.2323 H         1 UNK         0.0793 
     99 H99        23.3046    1.1460   -3.0640 H         1 UNK         0.3024 
    100 H100       23.8648   -0.1030   -1.1741 H         1 UNK         0.1171 
    101 H101       22.3700   -2.1229   -1.1395 H         1 UNK         0.0786 
    102 H102       22.0014   -1.1070   -2.5202 H         1 UNK         0.0786 
    103 H103       22.9323   -2.5815   -2.7465 H         1 UNK         0.0786 
    104 H104       24.8667   -2.8142   -1.2339 H         1 UNK         0.2977 
    105 H105       27.0681   -0.9481   -4.6753 H         1 UNK         0.3127 
    106 H106       29.6881    0.0121   -4.7470 H         1 UNK         0.0770 
    107 H107       27.2476    1.2041   -3.3297 H         1 UNK         0.0814 
    108 H108       28.9269    1.5369   -2.9369 H         1 UNK         0.0814 
    109 H109       28.2825   -0.0765   -2.7062 H         1 UNK         0.0814 
    110 H110       26.9228    1.3214   -6.4685 H         1 UNK         0.2983 
    111 H111       28.5436    3.6996   -7.3160 H         1 UNK         0.0947 
    112 H112       26.4352    4.7039   -8.0319 H         1 UNK         0.0806 
    113 H113       26.2955    4.2667   -6.3366 H         1 UNK         0.0806 
    114 H114       25.5188    3.2804   -7.5739 H         1 UNK         0.0806 
    115 H115       26.4098    1.0309   -8.4227 H         1 UNK         0.3000 
    116 H116       26.6321    1.4074  -11.1501 H         1 UNK         0.0850 
    117 H117       25.7961   -0.9166  -11.3343 H         1 UNK         0.0810 
    118 H118       24.9835   -0.0952  -10.0096 H         1 UNK         0.0810 
    119 H119       26.2756   -1.2492   -9.6784 H         1 UNK         0.0810 
    120 H120       28.9375   -0.4334   -9.0887 H         1 UNK         0.3040 
    121 H121       30.5088   -1.3001  -11.4265 H         1 UNK         0.0766 
    122 H122       31.0696   -1.6472   -8.4362 H         1 UNK         0.0812 
    123 H123       31.8356   -2.5038   -9.7631 H         1 UNK         0.0812 
    124 H124       30.1389   -2.7857   -9.4095 H         1 UNK         0.0812 
    125 H125       30.2403    1.6208   -9.8914 H         1 UNK         0.3205 
    126 H126       31.3471    3.4748   -9.6854 H         1 UNK         0.0754 
    127 H127       33.3120    4.0027  -11.0832 H         1 UNK         0.0769 
    128 H128       32.1019    3.1518  -12.0308 H         1 UNK         0.0769 
    129 H129       33.5452    2.3071  -11.4707 H         1 UNK         0.0769 
    130 H130       33.5014    0.7230   -9.1469 H         1 UNK         0.2981 
    131 H131       34.9256    0.1435   -7.5785 H         1 UNK         0.0541 
    132 H132       36.4183    1.6847   -5.5202 H         1 UNK         0.3459 
    133 H133       37.5377    2.6396   -6.4561 H         1 UNK         0.3459 
    134 H134       33.5917    2.1829   -5.7285 H         1 UNK         0.0612 
    135 H135       34.6364    0.8963   -5.2018 H         1 UNK         0.0612 
    136 H136       33.8110   -1.9341   -6.0596 H         1 UNK         0.0624 
    137 H137       34.0048   -1.2110   -4.4812 H         1 UNK         0.0624 
@<TRIPOS>BOND
     1    1    2 1    
     2    1   72 1    
     3    1   73 1    
     4    1   74 1    
     5    2    3 2    
     6    2    4 am   BACKBONE|DICT|INTERRES
     7    4    5 1    
     8    4   75 1    
     9    5    6 1    
    10    5   35 1    
    11    5   76 1    
    12    6    7 1    
    13    6   77 1    
    14    6   78 1    
    15    7    8 1    
    16    8    9 1    
    17    8   79 1    
    18    8   80 1    
    19    9   10 ar   
    20    9   14 ar   
    21   10   11 ar   
    22   10   81 1    
    23   11   12 ar   
    24   11   71 1    
    25   12   13 ar   
    26   12   82 1    
    27   13   14 ar   
    28   13   15 1    
    29   14   83 1    
    30   15   16 1    
    31   15   84 1    
    32   15   85 1    
    33   16   17 1    
    34   17   18 1    
    35   17   86 1    
    36   17   87 1    
    37   18   19 1    
    38   18   37 1    
    39   18   88 1    
    40   19   20 am   BACKBONE|DICT|INTERRES
    41   19   89 1    
    42   20   21 2    
    43   20   22 1    
    44   22   23 1    
    45   22   24 1    
    46   22   90 1    
    47   23   91 1    
    48   23   92 1    
    49   23   93 1    
    50   24   25 am   BACKBONE|DICT|INTERRES
    51   24   94 1    
    52   25   26 2    
    53   25   27 1    
    54   27   28 1    
    55   27   29 1    
    56   27   95 1    
    57   28   96 1    
    58   28   97 1    
    59   28   98 1    
    60   29   30 am   BACKBONE|DICT|INTERRES
    61   29   99 1    
    62   30   31 2    
    63   30   32 1    
    64   32   33 1    
    65   32   34 1    
    66   32  100 1    
    67   33  101 1    
    68   33  102 1    
    69   33  103 1    
    70   34   35 am   BACKBONE|DICT|INTERRES
    71   34  104 1    
    72   35   36 2    
    73   37   38 2    
    74   37   39 am   BACKBONE|DICT|INTERRES
    75   39   40 1    
    76   39  105 1    
    77   40   41 1    
    78   40   42 1    
    79   40  106 1    
    80   41  107 1    
    81   41  108 1    
    82   41  109 1    
    83   42   43 2    
    84   42   44 am   BACKBONE|DICT|INTERRES
    85   44   45 1    
    86   44  110 1    
    87   45   46 1    
    88   45   47 1    
    89   45  111 1    
    90   46  112 1    
    91   46  113 1    
    92   46  114 1    
    93   47   48 2    
    94   47   49 am   BACKBONE|DICT|INTERRES
    95   49   50 1    
    96   49  115 1    
    97   50   51 1    
    98   50   52 1    
    99   50  116 1    
   100   51  117 1    
   101   51  118 1    
   102   51  119 1    
   103   52   53 2    
   104   52   54 am   BACKBONE|DICT|INTERRES
   105   54   55 1    
   106   54  120 1    
   107   55   56 1    
   108   55   57 1    
   109   55  121 1    
   110   56  122 1    
   111   56  123 1    
   112   56  124 1    
   113   57   58 2    
   114   57   59 am   BACKBONE|DICT|INTERRES
   115   59   60 1    
   116   59  125 1    
   117   60   61 1    
   118   60   62 1    
   119   60  126 1    
   120   61  127 1    
   121   61  128 1    
   122   61  129 1    
   123   62   63 2    
   124   62   64 am   BACKBONE|DICT|INTERRES
   125   64   65 1    
   126   64  130 1    
   127   65   66 1    
   128   65   69 1    
   129   65  131 1    
   130   66   67 am   BACKBONE|DICT|INTERRES
   131   66   68 2    
   132   67  132 1    
   133   67  133 1    
   134   69   70 1    
   135   69  134 1    
   136   69  135 1    
   137   70   71 1    
   138   71  136 1    
   139   71  137 1    
@<TRIPOS>SUBSTRUCTURE
     1 UNK         1 GROUP             0       ****    0 ROOT    
