@<TRIPOS>MOLECULE
3R137
137   139    1
SMALL
USER_CHARGES


@<TRIPOS>ATOM
      1 CA         25.5562   -6.2826    1.9241 C.3       0 UNK        -0.2020 
      2 C          25.5633   -5.7425    0.5017 C.2       0 UNK         0.4855 
      3 O          24.6909   -6.1037   -0.2884 O.2       0 UNK        -0.5197 
      4 N          26.5400   -4.8808    0.1807 N.am      1 UNK        -0.4892 
      5 CA         26.7514   -4.2418   -1.1296 C.3       1 UNK         0.0835 
      6 C6         27.1496   -5.2422   -2.2544 C.3       12 UNK        -0.0855 
      7 S7         28.6213   -6.2454   -1.8354 S.3       12 UNK        -0.2931 
      8 C8         29.7193   -5.9702   -3.2765 C.3       12 UNK         0.0378 
      9 C9         30.3813   -4.5920   -3.3815 C.ar      12 UNK        -0.0802 
     10 C10        31.1549   -4.3079   -4.5121 C.ar      12 UNK        -0.0944 
     11 C11        31.7889   -3.0689   -4.6587 C.ar      12 UNK        -0.0787 
     12 C12        31.6236   -2.0901   -3.6748 C.ar      12 UNK        -0.0862 
     13 C13        30.8405   -2.3509   -2.5488 C.ar      12 UNK        -0.0733 
     14 C14        30.2549   -3.6091   -2.3934 C.ar      12 UNK        -0.0832 
     15 C15        30.6038   -1.2825   -1.4950 C.3       12 UNK         0.0240 
     16 S16        28.8981   -0.6517   -1.5993 S.3       12 UNK        -0.2522 
     17 C17        29.0752    0.7934   -2.7010 C.3       12 UNK        -0.0967 
     18 CA         28.9265    0.4913   -4.2160 C.3       5 UNK         0.0660 
     19 N          27.7282   -0.2970   -4.5186 N.am      5 UNK        -0.4015 
     20 C          27.3767   -0.7476   -5.7327 C.2       4 UNK         0.4946 
     21 O          28.0346   -0.5691   -6.7561 O.2       4 UNK        -0.5353 
     22 CA         26.0173   -1.4540   -5.8463 C.3       4 UNK         0.0277 
     23 CB         26.1989   -2.9736   -5.7304 C.3       4 UNK        -0.1981 
     24 N          25.0119   -0.9833   -4.8829 N.am      4 UNK        -0.4209 
     25 C          24.5871    0.2883   -4.7815 C.2       3 UNK         0.4942 
     26 O          25.0624    1.2166   -5.4375 O.2       3 UNK        -0.5208 
     27 CA         23.4594    0.5998   -3.7831 C.3       3 UNK         0.0250 
     28 CB         22.1109    0.6797   -4.5162 C.3       3 UNK        -0.1990 
     29 N          23.3541   -0.3551   -2.6782 N.am      3 UNK        -0.4232 
     30 C          24.2706   -0.5113   -1.7136 C.2       2 UNK         0.4993 
     31 O          25.3151    0.1398   -1.6568 O.2       2 UNK        -0.5286 
     32 CA         23.9919   -1.5750   -0.6328 C.3       2 UNK         0.0209 
     33 CB         22.6399   -2.3107   -0.7881 C.3       2 UNK        -0.1931 
     34 N          25.0892   -2.5440   -0.5350 N.am      2 UNK        -0.4546 
     35 C          25.5731   -3.3195   -1.5189 C.2       1 UNK         0.5154 
     36 O          25.1255   -3.3250   -2.6679 O.2       1 UNK        -0.5181 
     37 C          28.9962    1.8177   -5.0077 C.2       5 UNK         0.5014 
     38 O          30.0993    2.3025   -5.2600 O.2       5 UNK        -0.5248 
     39 N          27.8332    2.3867   -5.3593 N.am      6 UNK        -0.4434 
     40 CA         27.7064    3.6172   -6.1387 C.3       6 UNK         0.0363 
     41 CB         26.7487    4.5748   -5.4104 C.3       6 UNK        -0.1936 
     42 C          27.1970    3.3386   -7.5606 C.2       6 UNK         0.5081 
     43 O          27.6299    4.0169   -8.4924 O.2       6 UNK        -0.5248 
     44 N          26.2695    2.3805   -7.7081 N.am      7 UNK        -0.4718 
     45 CA         25.6029    2.0654   -8.9734 C.3       7 UNK         0.0273 
     46 CB         24.3606    1.2014   -8.7040 C.3       7 UNK        -0.1935 
     47 C          26.5169    1.3972  -10.0126 C.2       7 UNK         0.5018 
     48 O          26.3469    1.6608  -11.2044 O.2       7 UNK        -0.5186 
     49 N          27.4619    0.5562   -9.5682 N.am      8 UNK        -0.4240 
     50 CA         28.4679   -0.0470  -10.4406 C.3       8 UNK         0.0235 
     51 CB         28.9317   -1.3896   -9.8537 C.3       8 UNK        -0.2000 
     52 C          29.6431    0.9257  -10.5902 C.2       8 UNK         0.4941 
     53 O          30.2934    1.2436   -9.5936 O.2       8 UNK        -0.5273 
     54 N          29.9152    1.3645  -11.8274 N.am      9 UNK        -0.4262 
     55 CA         30.9815    2.3200  -12.1590 C.3       9 UNK         0.0264 
     56 CB         30.9174    2.6623  -13.6562 C.3       9 UNK        -0.1955 
     57 C          32.3927    1.8396  -11.7745 C.2       9 UNK         0.5031 
     58 O          33.2296    2.6590  -11.3935 O.2       9 UNK        -0.5390 
     59 N          32.6141    0.5189  -11.8349 N.am      10 UNK        -0.4204 
     60 CA         33.8426   -0.1511  -11.4020 C.3       10 UNK         0.0237 
     61 CB         33.7948   -1.6222  -11.8470 C.3       10 UNK        -0.1985 
     62 C          34.1043   -0.0593   -9.8860 C.2       10 UNK         0.4970 
     63 O          35.2602   -0.1806   -9.4783 O.2       10 UNK        -0.4914 
     64 N          33.0499    0.1489   -9.0858 N.am      11 UNK        -0.4285 
     65 CA         33.1304    0.3242   -7.6285 C.3       11 UNK         0.1007 
     66 C          33.3885    1.7960   -7.1935 C.2       11 UNK         0.5703 
     67 N          33.4230    2.7695   -8.0983 N.am      11 UNK        -0.7361 
     68 O          33.6041    2.0556   -6.0122 O.2       11 UNK        -0.4986 
     69 C69        31.9001   -0.2879   -6.9068 C.3       12 UNK        -0.0947 
     70 S70        31.7223   -2.0731   -7.2444 S.3       12 UNK        -0.2240 
     71 C71        32.6659   -2.8030   -5.8728 C.3       12 UNK         0.0194 
     72 H72        25.6381   -7.3692    1.9122 H         1 UNK         0.0906 
     73 H73        26.3816   -5.8878    2.5165 H         1 UNK         0.0906 
     74 H74        24.6240   -6.0166    2.4219 H         1 UNK         0.0906 
     75 H75        27.2246   -4.6430    0.8856 H         1 UNK         0.3140 
     76 H76        27.5848   -3.5547   -0.9911 H         1 UNK         0.1085 
     77 H77        27.3535   -4.7034   -3.1796 H         1 UNK         0.0836 
     78 H78        26.3228   -5.9189   -2.4768 H         1 UNK         0.0836 
     79 H79        29.1523   -6.1668   -4.1878 H         1 UNK         0.0731 
     80 H80        30.5087   -6.7223   -3.2405 H         1 UNK         0.0731 
     81 H81        31.2741   -5.0601   -5.2803 H         1 UNK         0.1312 
     82 H82        32.1009   -1.1266   -3.7841 H         1 UNK         0.1406 
     83 H83        29.6922   -3.8033   -1.4952 H         1 UNK         0.1631 
     84 H84        31.3226   -0.4671   -1.5863 H         1 UNK         0.0717 
     85 H85        30.7584   -1.7146   -0.5052 H         1 UNK         0.0717 
     86 H86        28.3154    1.5133   -2.3887 H         1 UNK         0.0934 
     87 H87        30.0344    1.2756   -2.5021 H         1 UNK         0.0934 
     88 H88        29.7794   -0.1111   -4.5316 H         1 UNK         0.0739 
     89 H89        27.1162   -0.4854   -3.7366 H         1 UNK         0.3093 
     90 H90        25.6268   -1.2439   -6.8425 H         1 UNK         0.0818 
     91 H91        26.6721   -3.2451   -4.7886 H         1 UNK         0.0819 
     92 H92        25.2474   -3.5011   -5.7977 H         1 UNK         0.0819 
     93 H93        26.8382   -3.3491   -6.5307 H         1 UNK         0.0819 
     94 H94        24.6163   -1.6809   -4.2644 H         1 UNK         0.3041 
     95 H95        23.6728    1.5818   -3.3553 H         1 UNK         0.0784 
     96 H96        22.1520    1.4053   -5.3303 H         1 UNK         0.0793 
     97 H97        21.8286   -0.2804   -4.9502 H         1 UNK         0.0793 
     98 H98        21.3115    0.9949   -3.8453 H         1 UNK         0.0793 
     99 H99        22.5320   -0.9412   -2.6579 H         1 UNK         0.3024 
    100 H100       23.9667   -1.0345    0.3150 H         1 UNK         0.1171 
    101 H101       22.4876   -3.0169    0.0284 H         1 UNK         0.0786 
    102 H102       21.8013   -1.6135   -0.7611 H         1 UNK         0.0786 
    103 H103       22.5797   -2.8753   -1.7195 H         1 UNK         0.0786 
    104 H104       25.5398   -2.6020    0.3675 H         1 UNK         0.2977 
    105 H105       26.9680    1.9034   -5.1425 H         1 UNK         0.3127 
    106 H106       28.6749    4.1139   -6.2293 H         1 UNK         0.0770 
    107 H107       25.7567    4.1383   -5.2856 H         1 UNK         0.0814 
    108 H108       26.6291    5.5053   -5.9670 H         1 UNK         0.0814 
    109 H109       27.1267    4.8352   -4.4217 H         1 UNK         0.0814 
    110 H110       25.9159    1.9023   -6.8821 H         1 UNK         0.2983 
    111 H111       25.2622    3.0086   -9.4066 H         1 UNK         0.0947 
    112 H112       24.6247    0.2341   -8.2794 H         1 UNK         0.0806 
    113 H113       23.8107    1.0119   -9.6268 H         1 UNK         0.0806 
    114 H114       23.6753    1.6942   -8.0139 H         1 UNK         0.0806 
    115 H115       27.5833    0.4119   -8.5705 H         1 UNK         0.3000 
    116 H116       28.0317   -0.2483  -11.4217 H         1 UNK         0.0850 
    117 H117       28.0968   -2.0789   -9.7291 H         1 UNK         0.0810 
    118 H118       29.4031   -1.2604   -8.8798 H         1 UNK         0.0810 
    119 H119       29.6611   -1.8719  -10.5053 H         1 UNK         0.0810 
    120 H120       29.3230    1.0659  -12.5897 H         1 UNK         0.3040 
    121 H121       30.7864    3.2327  -11.5917 H         1 UNK         0.0766 
    122 H122       31.6869    3.3884  -13.9232 H         1 UNK         0.0812 
    123 H123       29.9558    3.1013  -13.9229 H         1 UNK         0.0812 
    124 H124       31.0707    1.7812  -14.2806 H         1 UNK         0.0812 
    125 H125       31.8640   -0.0722  -12.1622 H         1 UNK         0.3205 
    126 H126       34.6814    0.3335  -11.9062 H         1 UNK         0.0754 
    127 H127       34.7122   -2.1438  -11.5697 H         1 UNK         0.0769 
    128 H128       33.6911   -1.7079  -12.9289 H         1 UNK         0.0769 
    129 H129       32.9642   -2.1572  -11.3843 H         1 UNK         0.0769 
    130 H130       32.1308    0.3011   -9.4849 H         1 UNK         0.2981 
    131 H131       34.0019   -0.2270   -7.2708 H         1 UNK         0.0541 
    132 H132       33.2709    2.5730   -9.0776 H         1 UNK         0.3459 
    133 H133       33.6042    3.7133   -7.7967 H         1 UNK         0.3459 
    134 H134       31.9652   -0.1326   -5.8304 H         1 UNK         0.0612 
    135 H135       30.9828    0.2112   -7.2232 H         1 UNK         0.0612 
    136 H136       33.1081   -3.7386   -6.2184 H         1 UNK         0.0624 
    137 H137       33.5029   -2.1556   -5.6072 H         1 UNK         0.0624 
@<TRIPOS>BOND
     1    1    2 1    
     2    1   72 1    
     3    1   73 1    
     4    1   74 1    
     5    2    3 2    
     6    2    4 am   BACKBONE|DICT|INTERRES
     7    4    5 1    
     8    4   75 1    
     9    5    6 1    
    10    5   35 1    
    11    5   76 1    
    12    6    7 1    
    13    6   77 1    
    14    6   78 1    
    15    7    8 1    
    16    8    9 1    
    17    8   79 1    
    18    8   80 1    
    19    9   10 ar   
    20    9   14 ar   
    21   10   11 ar   
    22   10   81 1    
    23   11   12 ar   
    24   11   71 1    
    25   12   13 ar   
    26   12   82 1    
    27   13   14 ar   
    28   13   15 1    
    29   14   83 1    
    30   15   16 1    
    31   15   84 1    
    32   15   85 1    
    33   16   17 1    
    34   17   18 1    
    35   17   86 1    
    36   17   87 1    
    37   18   19 1    
    38   18   37 1    
    39   18   88 1    
    40   19   20 am   BACKBONE|DICT|INTERRES
    41   19   89 1    
    42   20   21 2    
    43   20   22 1    
    44   22   23 1    
    45   22   24 1    
    46   22   90 1    
    47   23   91 1    
    48   23   92 1    
    49   23   93 1    
    50   24   25 am   BACKBONE|DICT|INTERRES
    51   24   94 1    
    52   25   26 2    
    53   25   27 1    
    54   27   28 1    
    55   27   29 1    
    56   27   95 1    
    57   28   96 1    
    58   28   97 1    
    59   28   98 1    
    60   29   30 am   BACKBONE|DICT|INTERRES
    61   29   99 1    
    62   30   31 2    
    63   30   32 1    
    64   32   33 1    
    65   32   34 1    
    66   32  100 1    
    67   33  101 1    
    68   33  102 1    
    69   33  103 1    
    70   34   35 am   BACKBONE|DICT|INTERRES
    71   34  104 1    
    72   35   36 2    
    73   37   38 2    
    74   37   39 am   BACKBONE|DICT|INTERRES
    75   39   40 1    
    76   39  105 1    
    77   40   41 1    
    78   40   42 1    
    79   40  106 1    
    80   41  107 1    
    81   41  108 1    
    82   41  109 1    
    83   42   43 2    
    84   42   44 am   BACKBONE|DICT|INTERRES
    85   44   45 1    
    86   44  110 1    
    87   45   46 1    
    88   45   47 1    
    89   45  111 1    
    90   46  112 1    
    91   46  113 1    
    92   46  114 1    
    93   47   48 2    
    94   47   49 am   BACKBONE|DICT|INTERRES
    95   49   50 1    
    96   49  115 1    
    97   50   51 1    
    98   50   52 1    
    99   50  116 1    
   100   51  117 1    
   101   51  118 1    
   102   51  119 1    
   103   52   53 2    
   104   52   54 am   BACKBONE|DICT|INTERRES
   105   54   55 1    
   106   54  120 1    
   107   55   56 1    
   108   55   57 1    
   109   55  121 1    
   110   56  122 1    
   111   56  123 1    
   112   56  124 1    
   113   57   58 2    
   114   57   59 am   BACKBONE|DICT|INTERRES
   115   59   60 1    
   116   59  125 1    
   117   60   61 1    
   118   60   62 1    
   119   60  126 1    
   120   61  127 1    
   121   61  128 1    
   122   61  129 1    
   123   62   63 2    
   124   62   64 am   BACKBONE|DICT|INTERRES
   125   64   65 1    
   126   64  130 1    
   127   65   66 1    
   128   65   69 1    
   129   65  131 1    
   130   66   67 am   BACKBONE|DICT|INTERRES
   131   66   68 2    
   132   67  132 1    
   133   67  133 1    
   134   69   70 1    
   135   69  134 1    
   136   69  135 1    
   137   70   71 1    
   138   71  136 1    
   139   71  137 1    
@<TRIPOS>SUBSTRUCTURE
     1 UNK         1 GROUP             0       ****    0 ROOT    
