@<TRIPOS>MOLECULE
3R137
137   139    1
SMALL
USER_CHARGES


@<TRIPOS>ATOM
      1 CA         28.6806   -5.7064   -6.0692 C.3       0 UNK        -0.2020 
      2 C          28.5601   -5.9286   -4.5700 C.2       0 UNK         0.4855 
      3 O          28.0697   -6.9751   -4.1457 O.2       0 UNK        -0.5197 
      4 N          29.0005   -4.9545   -3.7639 N.am      1 UNK        -0.4892 
      5 CA         28.9453   -4.9938   -2.2966 C.3       1 UNK         0.0835 
      6 C6         29.9324   -3.9845   -1.6634 C.3       12 UNK        -0.0855 
      7 S7         31.6740   -4.3195   -2.1111 S.3       12 UNK        -0.2931 
      8 C8         32.5671   -3.0243   -1.1856 C.3       12 UNK         0.0378 
      9 C9         32.2347   -1.6273   -1.6916 C.ar      12 UNK        -0.0802 
     10 C10        32.9772   -1.0411   -2.7227 C.ar      12 UNK        -0.0944 
     11 C11        32.6289    0.2220   -3.2162 C.ar      12 UNK        -0.0787 
     12 C12        31.5288    0.8948   -2.6752 C.ar      12 UNK        -0.0862 
     13 C13        30.7860    0.3181   -1.6436 C.ar      12 UNK        -0.0733 
     14 C14        31.1613   -0.9271   -1.1367 C.ar      12 UNK        -0.0832 
     15 C15        29.5469    1.0061   -1.1022 C.3       12 UNK         0.0240 
     16 S16        28.0564    0.2076   -1.7763 S.3       12 UNK        -0.2522 
     17 C17        27.2670    1.5492   -2.7219 C.3       12 UNK        -0.0967 
     18 CA         27.5693    1.5086   -4.2421 C.3       5 UNK         0.0660 
     19 N          27.0653    0.2902   -4.8948 N.am      5 UNK        -0.4015 
     20 C          27.1872    0.0201   -6.2070 C.2       4 UNK         0.4946 
     21 O          27.8794    0.6941   -6.9720 O.2       4 UNK        -0.5353 
     22 CA         26.3440   -1.1265   -6.8077 C.3       4 UNK         0.0277 
     23 CB         27.2188   -2.3389   -7.1549 C.3       4 UNK        -0.1981 
     24 N          25.2212   -1.5687   -5.9786 N.am      4 UNK        -0.4209 
     25 C          24.2040   -0.8048   -5.5550 C.2       3 UNK         0.4942 
     26 O          24.0655    0.3783   -5.8680 O.2       3 UNK        -0.5208 
     27 CA         23.2132   -1.4471   -4.5633 C.3       3 UNK         0.0250 
     28 CB         21.9419   -1.9001   -5.2986 C.3       3 UNK        -0.1990 
     29 N          23.7530   -2.5754   -3.7860 N.am      3 UNK        -0.4232 
     30 C          24.8532   -2.5418   -3.0176 C.2       2 UNK         0.4993 
     31 O          25.5696   -1.5463   -2.9186 O.2       2 UNK        -0.5286 
     32 CA         25.2562   -3.8242   -2.2732 C.3       2 UNK         0.0209 
     33 CB         24.3927   -5.0610   -2.6094 C.3       2 UNK        -0.1931 
     34 N          26.6622   -4.1031   -2.5607 N.am      2 UNK        -0.4546 
     35 C          27.5120   -4.7649   -1.7645 C.2       1 UNK         0.5154 
     36 O          27.2024   -5.2040   -0.6555 O.2       1 UNK        -0.5181 
     37 C          27.0148    2.7981   -4.8913 C.2       5 UNK         0.5014 
     38 O          27.7459    3.7852   -4.9784 O.2       5 UNK        -0.5248 
     39 N          25.7458    2.7728   -5.3322 N.am      6 UNK        -0.4434 
     40 CA         25.0922    3.8943   -6.0112 C.3       6 UNK         0.0363 
     41 CB         23.5674    3.7643   -5.8665 C.3       6 UNK        -0.1936 
     42 C          25.4855    3.9949   -7.4945 C.2       6 UNK         0.5081 
     43 O          25.4739    5.0972   -8.0429 O.2       6 UNK        -0.5248 
     44 N          25.8233    2.8570   -8.1192 N.am      7 UNK        -0.4718 
     45 CA         26.3098    2.7886   -9.4999 C.3       7 UNK         0.0273 
     46 CB         26.1959    1.3476  -10.0249 C.3       7 UNK        -0.1935 
     47 C          27.7546    3.2973   -9.6262 C.2       7 UNK         0.5018 
     48 O          28.0712    3.9693  -10.6080 O.2       7 UNK        -0.5186 
     49 N          28.5910    2.9664   -8.6290 N.am      8 UNK        -0.4240 
     50 CA         30.0040    3.3439   -8.4849 C.3       8 UNK         0.0235 
     51 CB         30.1554    4.8721   -8.3291 C.3       8 UNK        -0.2000 
     52 C          30.9285    2.7606   -9.5756 C.2       8 UNK         0.4941 
     53 O          32.0292    3.2740   -9.7829 O.2       8 UNK        -0.5273 
     54 N          30.4840    1.6826  -10.2290 N.am      9 UNK        -0.4262 
     55 CA         31.2290    0.8796  -11.1906 C.3       9 UNK         0.0264 
     56 CB         30.8472    1.2840  -12.6242 C.3       9 UNK        -0.1955 
     57 C          30.8507   -0.5716  -10.8919 C.2       9 UNK         0.5031 
     58 O          29.6565   -0.8540  -10.7609 O.2       9 UNK        -0.5390 
     59 N          31.8631   -1.4369  -10.7207 N.am      10 UNK        -0.4204 
     60 CA         31.7599   -2.7935  -10.1536 C.3       10 UNK         0.0237 
     61 CB         31.0481   -3.7504  -11.1342 C.3       10 UNK        -0.1985 
     62 C          31.1132   -2.7724   -8.7503 C.2       10 UNK         0.4970 
     63 O          30.2303   -3.5791   -8.4581 O.2       10 UNK        -0.4914 
     64 N          31.5350   -1.7896   -7.9435 N.am      11 UNK        -0.4285 
     65 CA         30.9077   -1.3777   -6.6818 C.3       11 UNK         0.1007 
     66 C          30.9007   -2.4366   -5.5465 C.2       11 UNK         0.5703 
     67 N          31.8697   -3.3415   -5.4870 N.am      11 UNK        -0.7361 
     68 O          29.9755   -2.4644   -4.7401 O.2       11 UNK        -0.4986 
     69 C69        31.4532   -0.0042   -6.2162 C.3       12 UNK        -0.0947 
     70 S70        33.2601   -0.0116   -5.9279 S.3       12 UNK        -0.2240 
     71 C71        33.4284    0.8654   -4.3408 C.3       12 UNK         0.0194 
     72 H72        29.2038   -4.7805   -6.3016 H         1 UNK         0.0906 
     73 H73        29.2326   -6.5259   -6.5285 H         1 UNK         0.0906 
     74 H74        27.6923   -5.6619   -6.5255 H         1 UNK         0.0906 
     75 H75        29.3987   -4.1016   -4.1560 H         1 UNK         0.3140 
     76 H76        29.2392   -5.9955   -1.9749 H         1 UNK         0.1085 
     77 H77        29.8531   -3.9969   -0.5745 H         1 UNK         0.0836 
     78 H78        29.6704   -2.9760   -1.9870 H         1 UNK         0.0836 
     79 H79        33.6395   -3.2036   -1.2763 H         1 UNK         0.0731 
     80 H80        32.3338   -3.1103   -0.1231 H         1 UNK         0.0731 
     81 H81        33.8102   -1.5757   -3.1584 H         1 UNK         0.1312 
     82 H82        31.2388    1.8592   -3.0695 H         1 UNK         0.1406 
     83 H83        30.5790   -1.3751   -0.3430 H         1 UNK         0.1631 
     84 H84        29.5668    2.0712   -1.3353 H         1 UNK         0.0717 
     85 H85        29.5293    0.9316   -0.0139 H         1 UNK         0.0717 
     86 H86        26.1907    1.4738   -2.5533 H         1 UNK         0.0934 
     87 H87        27.5628    2.5066   -2.2882 H         1 UNK         0.0934 
     88 H88        28.6529    1.5189   -4.3782 H         1 UNK         0.0739 
     89 H89        26.5193   -0.3326   -4.3067 H         1 UNK         0.3093 
     90 H90        25.9136   -0.7482   -7.7365 H         1 UNK         0.0818 
     91 H91        26.6308   -3.1484   -7.5875 H         1 UNK         0.0819 
     92 H92        27.9730   -2.0705   -7.8953 H         1 UNK         0.0819 
     93 H93        27.7352   -2.7281   -6.2777 H         1 UNK         0.0819 
     94 H94        25.2436   -2.5270   -5.6642 H         1 UNK         0.3041 
     95 H95        22.9355   -0.6695   -3.8488 H         1 UNK         0.0784 
     96 H96        21.5038   -1.0767   -5.8650 H         1 UNK         0.0793 
     97 H97        22.1485   -2.7066   -6.0034 H         1 UNK         0.0793 
     98 H98        21.1810   -2.2492   -4.6003 H         1 UNK         0.0793 
     99 H99        23.2271   -3.4370   -3.8230 H         1 UNK         0.3024 
    100 H100       25.1504   -3.6037   -1.2085 H         1 UNK         0.1171 
    101 H101       24.7122   -5.9291   -2.0323 H         1 UNK         0.0786 
    102 H102       23.3427   -4.8948   -2.3652 H         1 UNK         0.0786 
    103 H103       24.4589   -5.3300   -3.6645 H         1 UNK         0.0786 
    104 H104       27.0245   -3.7161   -3.4208 H         1 UNK         0.2977 
    105 H105       25.2088    1.9123   -5.2685 H         1 UNK         0.3127 
    106 H106       25.3974    4.8234   -5.5245 H         1 UNK         0.0770 
    107 H107       23.1875    2.8703   -6.3623 H         1 UNK         0.0814 
    108 H108       23.0608    4.6217   -6.3116 H         1 UNK         0.0814 
    109 H109       23.2695    3.7200   -4.8189 H         1 UNK         0.0814 
    110 H110       25.8184    1.9980   -7.5888 H         1 UNK         0.2983 
    111 H111       25.6753    3.4270  -10.1192 H         1 UNK         0.0947 
    112 H112       26.8560    0.6636   -9.4910 H         1 UNK         0.0806 
    113 H113       26.4710    1.2987  -11.0795 H         1 UNK         0.0806 
    114 H114       25.1767    0.9707   -9.9388 H         1 UNK         0.0806 
    115 H115       28.2365    2.3360   -7.9123 H         1 UNK         0.3000 
    116 H116       30.3308    2.8928   -7.5474 H         1 UNK         0.0850 
    117 H117       29.5054    5.2548   -7.5419 H         1 UNK         0.0810 
    118 H118       29.9136    5.4000   -9.2519 H         1 UNK         0.0810 
    119 H119       31.1782    5.1396   -8.0612 H         1 UNK         0.0810 
    120 H120       29.5865    1.2917   -9.9711 H         1 UNK         0.3040 
    121 H121       32.3029    1.0171  -11.0458 H         1 UNK         0.0766 
    122 H122       31.3863    0.6817  -13.3563 H         1 UNK         0.0812 
    123 H123       31.0916    2.3288  -12.8172 H         1 UNK         0.0812 
    124 H124       29.7805    1.1513  -12.8106 H         1 UNK         0.0812 
    125 H125       32.8050   -1.1017  -10.8738 H         1 UNK         0.3205 
    126 H126       32.7794   -3.1574  -10.0170 H         1 UNK         0.0754 
    127 H127       31.0668   -4.7753  -10.7616 H         1 UNK         0.0769 
    128 H128       31.5338   -3.7514  -12.1099 H         1 UNK         0.0769 
    129 H129       30.0023   -3.4780  -11.2807 H         1 UNK         0.0769 
    130 H130       32.2944   -1.2035   -8.2544 H         1 UNK         0.2981 
    131 H131       29.8592   -1.2122   -6.9236 H         1 UNK         0.0541 
    132 H132       31.8735   -4.0061   -4.7293 H         1 UNK         0.3459 
    133 H133       32.6248   -3.3238   -6.1527 H         1 UNK         0.3459 
    134 H134       31.2448    0.7451   -6.9800 H         1 UNK         0.0612 
    135 H135       30.9161    0.3324   -5.3295 H         1 UNK         0.0612 
    136 H136       33.1306    1.9052   -4.4842 H         1 UNK         0.0624 
    137 H137       34.4828    0.8854   -4.0621 H         1 UNK         0.0624 
@<TRIPOS>BOND
     1    1    2 1    
     2    1   72 1    
     3    1   73 1    
     4    1   74 1    
     5    2    3 2    
     6    2    4 am   BACKBONE|DICT|INTERRES
     7    4    5 1    
     8    4   75 1    
     9    5    6 1    
    10    5   35 1    
    11    5   76 1    
    12    6    7 1    
    13    6   77 1    
    14    6   78 1    
    15    7    8 1    
    16    8    9 1    
    17    8   79 1    
    18    8   80 1    
    19    9   10 ar   
    20    9   14 ar   
    21   10   11 ar   
    22   10   81 1    
    23   11   12 ar   
    24   11   71 1    
    25   12   13 ar   
    26   12   82 1    
    27   13   14 ar   
    28   13   15 1    
    29   14   83 1    
    30   15   16 1    
    31   15   84 1    
    32   15   85 1    
    33   16   17 1    
    34   17   18 1    
    35   17   86 1    
    36   17   87 1    
    37   18   19 1    
    38   18   37 1    
    39   18   88 1    
    40   19   20 am   BACKBONE|DICT|INTERRES
    41   19   89 1    
    42   20   21 2    
    43   20   22 1    
    44   22   23 1    
    45   22   24 1    
    46   22   90 1    
    47   23   91 1    
    48   23   92 1    
    49   23   93 1    
    50   24   25 am   BACKBONE|DICT|INTERRES
    51   24   94 1    
    52   25   26 2    
    53   25   27 1    
    54   27   28 1    
    55   27   29 1    
    56   27   95 1    
    57   28   96 1    
    58   28   97 1    
    59   28   98 1    
    60   29   30 am   BACKBONE|DICT|INTERRES
    61   29   99 1    
    62   30   31 2    
    63   30   32 1    
    64   32   33 1    
    65   32   34 1    
    66   32  100 1    
    67   33  101 1    
    68   33  102 1    
    69   33  103 1    
    70   34   35 am   BACKBONE|DICT|INTERRES
    71   34  104 1    
    72   35   36 2    
    73   37   38 2    
    74   37   39 am   BACKBONE|DICT|INTERRES
    75   39   40 1    
    76   39  105 1    
    77   40   41 1    
    78   40   42 1    
    79   40  106 1    
    80   41  107 1    
    81   41  108 1    
    82   41  109 1    
    83   42   43 2    
    84   42   44 am   BACKBONE|DICT|INTERRES
    85   44   45 1    
    86   44  110 1    
    87   45   46 1    
    88   45   47 1    
    89   45  111 1    
    90   46  112 1    
    91   46  113 1    
    92   46  114 1    
    93   47   48 2    
    94   47   49 am   BACKBONE|DICT|INTERRES
    95   49   50 1    
    96   49  115 1    
    97   50   51 1    
    98   50   52 1    
    99   50  116 1    
   100   51  117 1    
   101   51  118 1    
   102   51  119 1    
   103   52   53 2    
   104   52   54 am   BACKBONE|DICT|INTERRES
   105   54   55 1    
   106   54  120 1    
   107   55   56 1    
   108   55   57 1    
   109   55  121 1    
   110   56  122 1    
   111   56  123 1    
   112   56  124 1    
   113   57   58 2    
   114   57   59 am   BACKBONE|DICT|INTERRES
   115   59   60 1    
   116   59  125 1    
   117   60   61 1    
   118   60   62 1    
   119   60  126 1    
   120   61  127 1    
   121   61  128 1    
   122   61  129 1    
   123   62   63 2    
   124   62   64 am   BACKBONE|DICT|INTERRES
   125   64   65 1    
   126   64  130 1    
   127   65   66 1    
   128   65   69 1    
   129   65  131 1    
   130   66   67 am   BACKBONE|DICT|INTERRES
   131   66   68 2    
   132   67  132 1    
   133   67  133 1    
   134   69   70 1    
   135   69  134 1    
   136   69  135 1    
   137   70   71 1    
   138   71  136 1    
   139   71  137 1    
@<TRIPOS>SUBSTRUCTURE
     1 UNK         1 GROUP             0       ****    0 ROOT    
