@<TRIPOS>MOLECULE
3R137
137   139    1
SMALL
USER_CHARGES


@<TRIPOS>ATOM
      1 CA         22.7648   -4.0343   -0.7344 C.3       0 UNK        -0.2020 
      2 C          24.1906   -3.5406   -0.5452 C.2       0 UNK         0.4855 
      3 O          24.3958   -2.4058   -0.1138 O.2       0 UNK        -0.5197 
      4 N          25.1810   -4.3862   -0.8578 N.am      1 UNK        -0.4892 
      5 CA         26.6071   -4.0715   -0.7248 C.3       1 UNK         0.0835 
      6 C6         27.4795   -5.3482   -0.7825 C.3       12 UNK        -0.0855 
      7 S7         29.0654   -5.1297    0.0977 S.3       12 UNK        -0.2931 
      8 C8         30.2544   -5.8990   -1.0452 C.3       12 UNK         0.0378 
      9 C9         30.5496   -5.0262   -2.2572 C.ar      12 UNK        -0.0802 
     10 C10        31.5165   -4.0183   -2.1834 C.ar      12 UNK        -0.0944 
     11 C11        31.8446   -3.2563   -3.3112 C.ar      12 UNK        -0.0787 
     12 C12        31.1740   -3.4996   -4.5160 C.ar      12 UNK        -0.0862 
     13 C13        30.2013   -4.5000   -4.5996 C.ar      12 UNK        -0.0733 
     14 C14        29.8975   -5.2622   -3.4697 C.ar      12 UNK        -0.0832 
     15 C15        29.4984   -4.7917   -5.9159 C.3       12 UNK         0.0240 
     16 S16        27.8145   -4.1088   -5.9372 S.3       12 UNK        -0.2522 
     17 C17        28.1598   -2.3449   -6.2343 C.3       12 UNK        -0.0967 
     18 CA         26.8809   -1.5786   -6.6452 C.3       5 UNK         0.0660 
     19 N          25.8712   -1.5933   -5.5799 N.am      5 UNK        -0.4015 
     20 C          24.5677   -1.3392   -5.7573 C.2       4 UNK         0.4946 
     21 O          24.0657   -1.0578   -6.8461 O.2       4 UNK        -0.5353 
     22 CA         23.6820   -1.3752   -4.5037 C.3       4 UNK         0.0277 
     23 CB         23.2465   -2.8138   -4.1844 C.3       4 UNK        -0.1981 
     24 N          24.3625   -0.7816   -3.3490 N.am      4 UNK        -0.4209 
     25 C          24.4571    0.5410   -3.1425 C.2       3 UNK         0.4942 
     26 O          23.8974    1.3805   -3.8474 O.2       3 UNK        -0.5208 
     27 CA         25.3380    1.0223   -1.9752 C.3       3 UNK         0.0250 
     28 CB         24.5013    1.1927   -0.6975 C.3       3 UNK        -0.1990 
     29 N          26.4768    0.1413   -1.7053 N.am      3 UNK        -0.4232 
     30 C          27.5196   -0.0255   -2.5335 C.2       2 UNK         0.4993 
     31 O          27.6479    0.5826   -3.5926 O.2       2 UNK        -0.5286 
     32 CA         28.5748   -1.0759   -2.1417 C.3       2 UNK         0.0209 
     33 CB         29.7244   -0.4185   -1.3632 C.3       2 UNK        -0.1931 
     34 N          28.0375   -2.1908   -1.3573 N.am      2 UNK        -0.4546 
     35 C          27.0513   -3.0072   -1.7508 C.2       1 UNK         0.5154 
     36 O          26.4836   -2.9160   -2.8443 O.2       1 UNK        -0.5181 
     37 C          27.2257   -0.1621   -7.1578 C.2       5 UNK         0.5014 
     38 O          27.8978   -0.0600   -8.1853 O.2       5 UNK        -0.5248 
     39 N          26.7620    0.8945   -6.4728 N.am      6 UNK        -0.4434 
     40 CA         27.0231    2.3161   -6.7413 C.3       6 UNK         0.0363 
     41 CB         26.3265    3.1572   -5.6581 C.3       6 UNK        -0.1936 
     42 C          26.6399    2.8312   -8.1438 C.2       6 UNK         0.5081 
     43 O          27.0293    3.9448   -8.4980 O.2       6 UNK        -0.5248 
     44 N          25.8933    2.0357   -8.9214 N.am      7 UNK        -0.4718 
     45 CA         25.6269    2.2718  -10.3416 C.3       7 UNK         0.0273 
     46 CB         24.5310    1.3029  -10.8138 C.3       7 UNK        -0.1935 
     47 C          26.8837    2.1389  -11.2265 C.2       7 UNK         0.5018 
     48 O          26.9275    2.7569  -12.2916 O.2       7 UNK        -0.5186 
     49 N          27.8726    1.3482  -10.7850 N.am      8 UNK        -0.4240 
     50 CA         29.1750    1.2031  -11.4350 C.3       8 UNK         0.0235 
     51 CB         29.6540   -0.2495  -11.2739 C.3       8 UNK        -0.2000 
     52 C          30.1895    2.1731  -10.8106 C.2       8 UNK         0.4941 
     53 O          30.0756    2.5093   -9.6306 O.2       8 UNK        -0.5273 
     54 N          31.1868    2.5836  -11.6060 N.am      9 UNK        -0.4262 
     55 CA         32.2815    3.4549  -11.1632 C.3       9 UNK         0.0264 
     56 CB         32.9867    4.0601  -12.3881 C.3       9 UNK        -0.1955 
     57 C          33.2944    2.7283  -10.2609 C.2       9 UNK         0.5031 
     58 O          33.8155    3.3316   -9.3209 O.2       9 UNK        -0.5390 
     59 N          33.5502    1.4454  -10.5507 N.am      10 UNK        -0.4204 
     60 CA         34.4264    0.5653   -9.7772 C.3       10 UNK         0.0237 
     61 CB         34.9551   -0.5498  -10.6991 C.3       10 UNK        -0.1985 
     62 C          33.6674    0.0126   -8.5598 C.2       10 UNK         0.4970 
     63 O          33.2208   -1.1360   -8.5868 O.2       10 UNK        -0.4914 
     64 N          33.4832    0.8682   -7.5461 N.am      11 UNK        -0.4285 
     65 CA         32.6786    0.6572   -6.3291 C.3       11 UNK         0.1007 
     66 C          31.1479    0.6103   -6.5996 C.2       11 UNK         0.5703 
     67 N          30.6873   -0.1653   -7.5700 N.am      11 UNK        -0.7361 
     68 O          30.3853    1.3076   -5.9381 O.2       11 UNK        -0.4986 
     69 C69        33.1763   -0.5429   -5.4762 C.3       12 UNK        -0.0947 
     70 S70        32.4978   -0.5632   -3.7810 S.3       12 UNK        -0.2240 
     71 C71        32.9738   -2.2317   -3.2265 C.3       12 UNK         0.0194 
     72 H72        22.7054   -4.8089   -1.4987 H         1 UNK         0.0906 
     73 H73        22.3834   -4.4425    0.2011 H         1 UNK         0.0906 
     74 H74        22.1146   -3.2126   -1.0333 H         1 UNK         0.0906 
     75 H75        24.9603   -5.2925   -1.2452 H         1 UNK         0.3140 
     76 H76        26.7212   -3.6326    0.2697 H         1 UNK         0.1085 
     77 H77        27.6351   -5.6725   -1.8118 H         1 UNK         0.0836 
     78 H78        26.9662   -6.1749   -0.2884 H         1 UNK         0.0836 
     79 H79        29.8827   -6.8775   -1.3541 H         1 UNK         0.0731 
     80 H80        31.1825   -6.0896   -0.5040 H         1 UNK         0.0731 
     81 H81        32.0345   -3.8492   -1.2491 H         1 UNK         0.1312 
     82 H82        31.4154   -2.9252   -5.3973 H         1 UNK         0.1406 
     83 H83        29.1595   -6.0490   -3.5441 H         1 UNK         0.1631 
     84 H84        29.4395   -5.8712   -6.0619 H         1 UNK         0.0717 
     85 H85        30.0693   -4.4034   -6.7608 H         1 UNK         0.0717 
     86 H86        28.6108   -1.9055   -5.3435 H         1 UNK         0.0934 
     87 H87        28.9123   -2.2841   -7.0226 H         1 UNK         0.0934 
     88 H88        26.4506   -2.1003   -7.5031 H         1 UNK         0.0739 
     89 H89        26.1904   -1.8851   -4.6619 H         1 UNK         0.3093 
     90 H90        22.7808   -0.7966   -4.7196 H         1 UNK         0.0818 
     91 H91        22.7749   -3.2792   -5.0511 H         1 UNK         0.0819 
     92 H92        24.0879   -3.4441   -3.8953 H         1 UNK         0.0819 
     93 H93        22.5158   -2.8300   -3.3775 H         1 UNK         0.0819 
     94 H94        24.8822   -1.4112   -2.7491 H         1 UNK         0.3041 
     95 H95        25.7353    2.0017   -2.2509 H         1 UNK         0.0784 
     96 H96        23.6708    1.8798   -0.8655 H         1 UNK         0.0793 
     97 H97        24.0765    0.2463   -0.3617 H         1 UNK         0.0793 
     98 H98        25.0986    1.6017    0.1175 H         1 UNK         0.0793 
     99 H99        26.4363   -0.4129   -0.8616 H         1 UNK         0.3024 
    100 H100       28.9832   -1.4921   -3.0648 H         1 UNK         0.1171 
    101 H101       30.5316   -1.1272   -1.1765 H         1 UNK         0.0786 
    102 H102       30.1509    0.4115   -1.9285 H         1 UNK         0.0786 
    103 H103       29.3913   -0.0230   -0.4030 H         1 UNK         0.0786 
    104 H104       28.4710   -2.3591   -0.4603 H         1 UNK         0.2977 
    105 H105       26.2773    0.7001   -5.6080 H         1 UNK         0.3127 
    106 H106       28.1000    2.4627   -6.6454 H         1 UNK         0.0770 
    107 H107       25.2442    3.0251   -5.6824 H         1 UNK         0.0814 
    108 H108       26.5291    4.2204   -5.7937 H         1 UNK         0.0814 
    109 H109       26.6759    2.8904   -4.6608 H         1 UNK         0.0814 
    110 H110       25.6078    1.1431   -8.5443 H         1 UNK         0.2983 
    111 H111       25.2556    3.2931  -10.4521 H         1 UNK         0.0947 
    112 H112       24.8414    0.2621  -10.7123 H         1 UNK         0.0806 
    113 H113       24.2888    1.4702  -11.8643 H         1 UNK         0.0806 
    114 H114       23.6104    1.4364  -10.2452 H         1 UNK         0.0806 
    115 H115       27.7911    0.9302   -9.8613 H         1 UNK         0.3000 
    116 H116       29.0847    1.4217  -12.5013 H         1 UNK         0.0850 
    117 H117       30.6177   -0.4045  -11.7603 H         1 UNK         0.0810 
    118 H118       28.9488   -0.9496  -11.7220 H         1 UNK         0.0810 
    119 H119       29.7706   -0.5221  -10.2249 H         1 UNK         0.0810 
    120 H120       31.2068    2.2764  -12.5684 H         1 UNK         0.3040 
    121 H121       31.8528    4.2745  -10.5820 H         1 UNK         0.0766 
    122 H122       32.2955    4.6458  -12.9945 H         1 UNK         0.0812 
    123 H123       33.4266    3.2923  -13.0257 H         1 UNK         0.0812 
    124 H124       33.7922    4.7293  -12.0818 H         1 UNK         0.0812 
    125 H125       33.0526    1.0228  -11.3201 H         1 UNK         0.3205 
    126 H126       35.2858    1.1329   -9.4130 H         1 UNK         0.0754 
    127 H127       35.6068   -1.2315  -10.1508 H         1 UNK         0.0769 
    128 H128       35.5384   -0.1383  -11.5231 H         1 UNK         0.0769 
    129 H129       34.1464   -1.1447  -11.1260 H         1 UNK         0.0769 
    130 H130       33.8134    1.8159   -7.6827 H         1 UNK         0.2981 
    131 H131       32.8520    1.5576   -5.7378 H         1 UNK         0.0541 
    132 H132       29.7002   -0.1358   -7.8053 H         1 UNK         0.3459 
    133 H133       31.3398   -0.7192   -8.1104 H         1 UNK         0.3459 
    134 H134       32.9562   -1.4865   -5.9735 H         1 UNK         0.0612 
    135 H135       34.2627   -0.5005   -5.3866 H         1 UNK         0.0612 
    136 H136       33.8256   -2.5885   -3.8068 H         1 UNK         0.0624 
    137 H137       33.3266   -2.1453   -2.1977 H         1 UNK         0.0624 
@<TRIPOS>BOND
     1    1    2 1    
     2    1   72 1    
     3    1   73 1    
     4    1   74 1    
     5    2    3 2    
     6    2    4 am   BACKBONE|DICT|INTERRES
     7    4    5 1    
     8    4   75 1    
     9    5    6 1    
    10    5   35 1    
    11    5   76 1    
    12    6    7 1    
    13    6   77 1    
    14    6   78 1    
    15    7    8 1    
    16    8    9 1    
    17    8   79 1    
    18    8   80 1    
    19    9   10 ar   
    20    9   14 ar   
    21   10   11 ar   
    22   10   81 1    
    23   11   12 ar   
    24   11   71 1    
    25   12   13 ar   
    26   12   82 1    
    27   13   14 ar   
    28   13   15 1    
    29   14   83 1    
    30   15   16 1    
    31   15   84 1    
    32   15   85 1    
    33   16   17 1    
    34   17   18 1    
    35   17   86 1    
    36   17   87 1    
    37   18   19 1    
    38   18   37 1    
    39   18   88 1    
    40   19   20 am   BACKBONE|DICT|INTERRES
    41   19   89 1    
    42   20   21 2    
    43   20   22 1    
    44   22   23 1    
    45   22   24 1    
    46   22   90 1    
    47   23   91 1    
    48   23   92 1    
    49   23   93 1    
    50   24   25 am   BACKBONE|DICT|INTERRES
    51   24   94 1    
    52   25   26 2    
    53   25   27 1    
    54   27   28 1    
    55   27   29 1    
    56   27   95 1    
    57   28   96 1    
    58   28   97 1    
    59   28   98 1    
    60   29   30 am   BACKBONE|DICT|INTERRES
    61   29   99 1    
    62   30   31 2    
    63   30   32 1    
    64   32   33 1    
    65   32   34 1    
    66   32  100 1    
    67   33  101 1    
    68   33  102 1    
    69   33  103 1    
    70   34   35 am   BACKBONE|DICT|INTERRES
    71   34  104 1    
    72   35   36 2    
    73   37   38 2    
    74   37   39 am   BACKBONE|DICT|INTERRES
    75   39   40 1    
    76   39  105 1    
    77   40   41 1    
    78   40   42 1    
    79   40  106 1    
    80   41  107 1    
    81   41  108 1    
    82   41  109 1    
    83   42   43 2    
    84   42   44 am   BACKBONE|DICT|INTERRES
    85   44   45 1    
    86   44  110 1    
    87   45   46 1    
    88   45   47 1    
    89   45  111 1    
    90   46  112 1    
    91   46  113 1    
    92   46  114 1    
    93   47   48 2    
    94   47   49 am   BACKBONE|DICT|INTERRES
    95   49   50 1    
    96   49  115 1    
    97   50   51 1    
    98   50   52 1    
    99   50  116 1    
   100   51  117 1    
   101   51  118 1    
   102   51  119 1    
   103   52   53 2    
   104   52   54 am   BACKBONE|DICT|INTERRES
   105   54   55 1    
   106   54  120 1    
   107   55   56 1    
   108   55   57 1    
   109   55  121 1    
   110   56  122 1    
   111   56  123 1    
   112   56  124 1    
   113   57   58 2    
   114   57   59 am   BACKBONE|DICT|INTERRES
   115   59   60 1    
   116   59  125 1    
   117   60   61 1    
   118   60   62 1    
   119   60  126 1    
   120   61  127 1    
   121   61  128 1    
   122   61  129 1    
   123   62   63 2    
   124   62   64 am   BACKBONE|DICT|INTERRES
   125   64   65 1    
   126   64  130 1    
   127   65   66 1    
   128   65   69 1    
   129   65  131 1    
   130   66   67 am   BACKBONE|DICT|INTERRES
   131   66   68 2    
   132   67  132 1    
   133   67  133 1    
   134   69   70 1    
   135   69  134 1    
   136   69  135 1    
   137   70   71 1    
   138   71  136 1    
   139   71  137 1    
@<TRIPOS>SUBSTRUCTURE
     1 UNK         1 GROUP             0       ****    0 ROOT    
