@<TRIPOS>MOLECULE
3R137
137   139    1
SMALL
USER_CHARGES


@<TRIPOS>ATOM
      1 CA         25.6717   -6.7736   -2.3333 C.3       0 UNK        -0.2020 
      2 C          25.9160   -5.7660   -1.2203 C.2       0 UNK         0.4855 
      3 O          25.2309   -5.8031   -0.1984 O.2       0 UNK        -0.5197 
      4 N          26.8833   -4.8602   -1.4128 N.am      1 UNK        -0.4892 
      5 CA         27.2825   -3.8333   -0.4349 C.3       1 UNK         0.0835 
      6 C6         28.7567   -3.3970   -0.6262 C.3       12 UNK        -0.0855 
      7 S7         29.9080   -4.8089   -0.5045 S.3       12 UNK        -0.2931 
      8 C8         31.4185   -4.1181   -1.2636 C.3       12 UNK         0.0378 
      9 C9         31.2960   -3.7306   -2.7385 C.ar      12 UNK        -0.0802 
     10 C10        32.1796   -2.7751   -3.2532 C.ar      12 UNK        -0.0944 
     11 C11        32.1263   -2.4019   -4.5985 C.ar      12 UNK        -0.0787 
     12 C12        31.1503   -2.9670   -5.4225 C.ar      12 UNK        -0.0862 
     13 C13        30.2658   -3.9322   -4.9359 C.ar      12 UNK        -0.0733 
     14 C14        30.3593   -4.3251   -3.5970 C.ar      12 UNK        -0.0832 
     15 C15        29.2707   -4.5845   -5.8938 C.3       12 UNK         0.0240 
     16 S16        27.5838   -4.7940   -5.2277 S.3       12 UNK        -0.2522 
     17 C17        27.0613   -3.0903   -4.8545 C.3       12 UNK        -0.0967 
     18 CA         26.7453   -2.2246   -6.1112 C.3       5 UNK         0.0660 
     19 N          25.4876   -1.4820   -5.9651 N.am      5 UNK        -0.4015 
     20 C          24.8782   -0.7871   -6.9388 C.2       4 UNK         0.4946 
     21 O          25.2723   -0.7483   -8.1032 O.2       4 UNK        -0.5353 
     22 CA         23.6415    0.0406   -6.5431 C.3       4 UNK         0.0277 
     23 CB         22.3690   -0.8163   -6.6352 C.3       4 UNK        -0.1981 
     24 N          23.7424    0.6250   -5.2034 N.am      4 UNK        -0.4209 
     25 C          24.6497    1.5432   -4.8372 C.2       3 UNK         0.4942 
     26 O          25.4501    2.0583   -5.6145 O.2       3 UNK        -0.5208 
     27 CA         24.7216    1.9002   -3.3410 C.3       3 UNK         0.0250 
     28 CB         23.8129    3.0994   -3.0290 C.3       3 UNK        -0.1990 
     29 N          24.3835    0.7802   -2.4537 N.am      3 UNK        -0.4232 
     30 C          25.0247   -0.3967   -2.4345 C.2       2 UNK         0.4993 
     31 O          25.9928   -0.6587   -3.1551 O.2       2 UNK        -0.5286 
     32 CA         24.4158   -1.4838   -1.5365 C.3       2 UNK         0.0209 
     33 CB         23.1367   -2.0498   -2.1787 C.3       2 UNK        -0.1931 
     34 N          25.3524   -2.5869   -1.3333 N.am      2 UNK        -0.4546 
     35 C          26.3424   -2.6055   -0.4325 C.2       1 UNK         0.5154 
     36 O          26.5283   -1.7018    0.3847 O.2       1 UNK        -0.5181 
     37 C          27.8958   -1.2467   -6.4094 C.2       5 UNK         0.5014 
     38 O          28.6410   -1.4362   -7.3744 O.2       5 UNK        -0.5248 
     39 N          27.9785   -0.1937   -5.5824 N.am      6 UNK        -0.4434 
     40 CA         28.9724    0.8689   -5.6964 C.3       6 UNK         0.0363 
     41 CB         28.8982    1.7946   -4.4737 C.3       6 UNK        -0.1936 
     42 C          28.8668    1.6617   -7.0058 C.2       6 UNK         0.5081 
     43 O          29.8974    1.9610   -7.6078 O.2       6 UNK        -0.5248 
     44 N          27.6342    1.9573   -7.4388 N.am      7 UNK        -0.4718 
     45 CA         27.3324    2.6087   -8.7132 C.3       7 UNK         0.0273 
     46 CB         25.8516    3.0177   -8.7486 C.3       7 UNK        -0.1935 
     47 C          27.6814    1.7357   -9.9285 C.2       7 UNK         0.5018 
     48 O          28.2437    2.2572  -10.8913 O.2       7 UNK        -0.5186 
     49 N          27.3634    0.4329   -9.8635 N.am      8 UNK        -0.4240 
     50 CA         27.6495   -0.5422  -10.9209 C.3       8 UNK         0.0235 
     51 CB         26.9547   -1.8780  -10.6111 C.3       8 UNK        -0.2000 
     52 C          29.1533   -0.7553  -11.1522 C.2       8 UNK         0.4941 
     53 O          29.5874   -0.7820  -12.3047 O.2       8 UNK        -0.5273 
     54 N          29.9212   -0.8849  -10.0616 N.am      9 UNK        -0.4262 
     55 CA         31.3813   -1.0148  -10.1087 C.3       9 UNK         0.0264 
     56 CB         31.8648   -1.6664   -8.8093 C.3       9 UNK        -0.1955 
     57 C          32.1118    0.3219  -10.3237 C.2       9 UNK         0.5031 
     58 O          33.2826    0.3041  -10.7059 O.2       9 UNK        -0.5390 
     59 N          31.4277    1.4400  -10.0426 N.am      10 UNK        -0.4204 
     60 CA         31.9307    2.8170  -10.0110 C.3       10 UNK         0.0237 
     61 CB         32.3984    3.2797  -11.4079 C.3       10 UNK        -0.1985 
     62 C          32.9826    3.0448   -8.9052 C.2       10 UNK         0.4970 
     63 O          33.8804    3.8709   -9.0816 O.2       10 UNK        -0.4914 
     64 N          32.8453    2.3253   -7.7816 N.am      11 UNK        -0.4285 
     65 CA         33.6672    2.4998   -6.5731 C.3       11 UNK         0.1007 
     66 C          33.1033    3.5608   -5.5832 C.2       11 UNK         0.5703 
     67 N          31.8902    4.0690   -5.7748 N.am      11 UNK        -0.7361 
     68 O          33.7890    3.9462   -4.6391 O.2       11 UNK        -0.4986 
     69 C69        34.0056    1.1471   -5.8863 C.3       12 UNK        -0.0947 
     70 S70        32.5799    0.2831   -5.1442 S.3       12 UNK        -0.2240 
     71 C71        33.1572   -1.4383   -5.1744 C.3       12 UNK         0.0194 
     72 H72        26.4330   -6.7158   -3.1107 H         1 UNK         0.0906 
     73 H73        25.6798   -7.7862   -1.9310 H         1 UNK         0.0906 
     74 H74        24.7000   -6.5973   -2.7936 H         1 UNK         0.0906 
     75 H75        27.4229   -4.8828   -2.2663 H         1 UNK         0.3140 
     76 H76        27.2007   -4.2694    0.5635 H         1 UNK         0.1085 
     77 H77        28.8813   -2.8996   -1.5897 H         1 UNK         0.0836 
     78 H78        29.0465   -2.6675    0.1329 H         1 UNK         0.0836 
     79 H79        31.7251   -3.2501   -0.6774 H         1 UNK         0.0731 
     80 H80        32.2186   -4.8531   -1.1677 H         1 UNK         0.0731 
     81 H81        32.9287   -2.3343   -2.6093 H         1 UNK         0.1312 
     82 H82        31.0935   -2.6767   -6.4578 H         1 UNK         0.1406 
     83 H83        29.6993   -5.0975   -3.2297 H         1 UNK         0.1631 
     84 H84        29.6548   -5.5689   -6.1635 H         1 UNK         0.0717 
     85 H85        29.2054   -4.0230   -6.8266 H         1 UNK         0.0717 
     86 H86        26.1652   -3.1957   -4.2419 H         1 UNK         0.0934 
     87 H87        27.7931   -2.6261   -4.1889 H         1 UNK         0.0934 
     88 H88        26.6289   -2.8751   -6.9809 H         1 UNK         0.0739 
     89 H89        25.1505   -1.3761   -5.0182 H         1 UNK         0.3093 
     90 H90        23.5528    0.8613   -7.2580 H         1 UNK         0.0818 
     91 H91        21.4753   -0.2220   -6.4439 H         1 UNK         0.0819 
     92 H92        22.2614   -1.2466   -7.6320 H         1 UNK         0.0819 
     93 H93        22.3825   -1.6429   -5.9236 H         1 UNK         0.0819 
     94 H94        23.1079    0.2741   -4.5015 H         1 UNK         0.3041 
     95 H95        25.7528    2.1873   -3.1255 H         1 UNK         0.0784 
     96 H96        24.0614    3.9515   -3.6636 H         1 UNK         0.0793 
     97 H97        22.7606    2.8654   -3.1953 H         1 UNK         0.0793 
     98 H98        23.9262    3.4255   -1.9949 H         1 UNK         0.0793 
     99 H99        23.5920    0.9151   -1.8403 H         1 UNK         0.3024 
    100 H100       24.1679   -1.0401   -0.5692 H         1 UNK         0.1171 
    101 H101       22.3769   -1.2769   -2.3015 H         1 UNK         0.0786 
    102 H102       22.6969   -2.8308   -1.5577 H         1 UNK         0.0786 
    103 H103       23.3305   -2.4778   -3.1633 H         1 UNK         0.0786 
    104 H104       25.2883   -3.3664   -1.9698 H         1 UNK         0.2977 
    105 H105       27.3204   -0.1306   -4.8135 H         1 UNK         0.3127 
    106 H106       29.9406    0.3757   -5.6996 H         1 UNK         0.0770 
    107 H107       27.9428    2.3168   -4.4187 H         1 UNK         0.0814 
    108 H108       29.6828    2.5510   -4.5133 H         1 UNK         0.0814 
    109 H109       29.0332    1.2380   -3.5463 H         1 UNK         0.0814 
    110 H110       26.8432    1.7519   -6.8322 H         1 UNK         0.2983 
    111 H111       27.9379    3.5158   -8.7738 H         1 UNK         0.0947 
    112 H112       25.6081    3.5262   -9.6824 H         1 UNK         0.0806 
    113 H113       25.6101    3.7012   -7.9343 H         1 UNK         0.0806 
    114 H114       25.1927    2.1529   -8.6648 H         1 UNK         0.0806 
    115 H115       26.8586    0.0876   -9.0523 H         1 UNK         0.3000 
    116 H116       27.2284   -0.1518  -11.8499 H         1 UNK         0.0850 
    117 H117       27.1722   -2.6211  -11.3795 H         1 UNK         0.0810 
    118 H118       25.8717   -1.7602  -10.5740 H         1 UNK         0.0810 
    119 H119       27.2783   -2.2906   -9.6548 H         1 UNK         0.0810 
    120 H120       29.4776   -0.9093   -9.1463 H         1 UNK         0.3040 
    121 H121       31.6505   -1.6726  -10.9380 H         1 UNK         0.0766 
    122 H122       32.9487   -1.7904   -8.8087 H         1 UNK         0.0812 
    123 H123       31.4253   -2.6559   -8.6854 H         1 UNK         0.0812 
    124 H124       31.6032   -1.0561   -7.9440 H         1 UNK         0.0812 
    125 H125       30.4865    1.3302   -9.6857 H         1 UNK         0.3205 
    126 H126       31.0746    3.4351   -9.7360 H         1 UNK         0.0754 
    127 H127       32.6166    4.3483  -11.4126 H         1 UNK         0.0769 
    128 H128       31.6289    3.1042  -12.1599 H         1 UNK         0.0769 
    129 H129       33.3041    2.7630  -11.7261 H         1 UNK         0.0769 
    130 H130       32.0237    1.7414   -7.6830 H         1 UNK         0.2981 
    131 H131       34.6292    2.9081   -6.8880 H         1 UNK         0.0541 
    132 H132       31.3148    3.7403   -6.5350 H         1 UNK         0.3459 
    133 H133       31.5411    4.7657   -5.1365 H         1 UNK         0.3459 
    134 H134       34.7500    1.2999   -5.1030 H         1 UNK         0.0612 
    135 H135       34.4764    0.4855   -6.6151 H         1 UNK         0.0612 
    136 H136       33.3951   -1.7218   -6.2004 H         1 UNK         0.0624 
    137 H137       34.0904   -1.5097   -4.6136 H         1 UNK         0.0624 
@<TRIPOS>BOND
     1    1    2 1    
     2    1   72 1    
     3    1   73 1    
     4    1   74 1    
     5    2    3 2    
     6    2    4 am   BACKBONE|DICT|INTERRES
     7    4    5 1    
     8    4   75 1    
     9    5    6 1    
    10    5   35 1    
    11    5   76 1    
    12    6    7 1    
    13    6   77 1    
    14    6   78 1    
    15    7    8 1    
    16    8    9 1    
    17    8   79 1    
    18    8   80 1    
    19    9   10 ar   
    20    9   14 ar   
    21   10   11 ar   
    22   10   81 1    
    23   11   12 ar   
    24   11   71 1    
    25   12   13 ar   
    26   12   82 1    
    27   13   14 ar   
    28   13   15 1    
    29   14   83 1    
    30   15   16 1    
    31   15   84 1    
    32   15   85 1    
    33   16   17 1    
    34   17   18 1    
    35   17   86 1    
    36   17   87 1    
    37   18   19 1    
    38   18   37 1    
    39   18   88 1    
    40   19   20 am   BACKBONE|DICT|INTERRES
    41   19   89 1    
    42   20   21 2    
    43   20   22 1    
    44   22   23 1    
    45   22   24 1    
    46   22   90 1    
    47   23   91 1    
    48   23   92 1    
    49   23   93 1    
    50   24   25 am   BACKBONE|DICT|INTERRES
    51   24   94 1    
    52   25   26 2    
    53   25   27 1    
    54   27   28 1    
    55   27   29 1    
    56   27   95 1    
    57   28   96 1    
    58   28   97 1    
    59   28   98 1    
    60   29   30 am   BACKBONE|DICT|INTERRES
    61   29   99 1    
    62   30   31 2    
    63   30   32 1    
    64   32   33 1    
    65   32   34 1    
    66   32  100 1    
    67   33  101 1    
    68   33  102 1    
    69   33  103 1    
    70   34   35 am   BACKBONE|DICT|INTERRES
    71   34  104 1    
    72   35   36 2    
    73   37   38 2    
    74   37   39 am   BACKBONE|DICT|INTERRES
    75   39   40 1    
    76   39  105 1    
    77   40   41 1    
    78   40   42 1    
    79   40  106 1    
    80   41  107 1    
    81   41  108 1    
    82   41  109 1    
    83   42   43 2    
    84   42   44 am   BACKBONE|DICT|INTERRES
    85   44   45 1    
    86   44  110 1    
    87   45   46 1    
    88   45   47 1    
    89   45  111 1    
    90   46  112 1    
    91   46  113 1    
    92   46  114 1    
    93   47   48 2    
    94   47   49 am   BACKBONE|DICT|INTERRES
    95   49   50 1    
    96   49  115 1    
    97   50   51 1    
    98   50   52 1    
    99   50  116 1    
   100   51  117 1    
   101   51  118 1    
   102   51  119 1    
   103   52   53 2    
   104   52   54 am   BACKBONE|DICT|INTERRES
   105   54   55 1    
   106   54  120 1    
   107   55   56 1    
   108   55   57 1    
   109   55  121 1    
   110   56  122 1    
   111   56  123 1    
   112   56  124 1    
   113   57   58 2    
   114   57   59 am   BACKBONE|DICT|INTERRES
   115   59   60 1    
   116   59  125 1    
   117   60   61 1    
   118   60   62 1    
   119   60  126 1    
   120   61  127 1    
   121   61  128 1    
   122   61  129 1    
   123   62   63 2    
   124   62   64 am   BACKBONE|DICT|INTERRES
   125   64   65 1    
   126   64  130 1    
   127   65   66 1    
   128   65   69 1    
   129   65  131 1    
   130   66   67 am   BACKBONE|DICT|INTERRES
   131   66   68 2    
   132   67  132 1    
   133   67  133 1    
   134   69   70 1    
   135   69  134 1    
   136   69  135 1    
   137   70   71 1    
   138   71  136 1    
   139   71  137 1    
@<TRIPOS>SUBSTRUCTURE
     1 UNK         1 GROUP             0       ****    0 ROOT    
