@<TRIPOS>MOLECULE
3R137
137   139    1
SMALL
USER_CHARGES


@<TRIPOS>ATOM
      1 CA         30.2182   -0.1317    2.9530 C.3       0 UNK        -0.2020 
      2 C          29.7186   -0.1468    1.5158 C.2       0 UNK         0.4855 
      3 O          29.1313    0.8359    1.0615 O.2       0 UNK        -0.5197 
      4 N          29.9540   -1.2499    0.7960 N.am      1 UNK        -0.4892 
      5 CA         29.4825   -1.4723   -0.5742 C.3       1 UNK         0.0835 
      6 C6         30.3473   -2.5332   -1.3010 C.3       12 UNK        -0.0855 
      7 S7         30.3080   -4.1931   -0.5317 S.3       12 UNK        -0.2931 
      8 C8         31.4591   -5.1218   -1.5976 C.3       12 UNK         0.0378 
      9 C9         31.1084   -5.0178   -3.0771 C.ar      12 UNK        -0.0802 
     10 C10        32.0360   -4.4889   -3.9784 C.ar      12 UNK        -0.0944 
     11 C11        31.7215   -4.3766   -5.3349 C.ar      12 UNK        -0.0787 
     12 C12        30.4811   -4.8285   -5.7922 C.ar      12 UNK        -0.0862 
     13 C13        29.5131   -5.2914   -4.8928 C.ar      12 UNK        -0.0733 
     14 C14        29.8493   -5.4136   -3.5406 C.ar      12 UNK        -0.0832 
     15 C15        28.0915   -5.6394   -5.3374 C.3       12 UNK         0.0240 
     16 S16        27.4500   -4.6806   -6.7603 S.3       12 UNK        -0.2522 
     17 C17        27.8521   -2.9502   -6.3338 C.3       12 UNK        -0.0967 
     18 CA         27.1005   -1.9589   -7.2514 C.3       5 UNK         0.0660 
     19 N          25.6885   -1.8270   -6.8930 N.am      5 UNK        -0.4015 
     20 C          24.7643   -1.2341   -7.6598 C.2       4 UNK         0.4946 
     21 O          24.9986   -0.7465   -8.7660 O.2       4 UNK        -0.5353 
     22 CA         23.3493   -1.1336   -7.0688 C.3       4 UNK         0.0277 
     23 CB         22.6054   -2.4726   -7.1990 C.3       4 UNK        -0.1981 
     24 N          23.3619   -0.7048   -5.6672 N.am      4 UNK        -0.4209 
     25 C          23.7424    0.5153   -5.2620 C.2       3 UNK         0.4942 
     26 O          24.0854    1.4155   -6.0270 O.2       3 UNK        -0.5208 
     27 CA         23.7737    0.7697   -3.7462 C.3       3 UNK         0.0250 
     28 CB         22.3772    1.1615   -3.2366 C.3       3 UNK        -0.1990 
     29 N          24.2955   -0.3453   -2.9456 N.am      3 UNK        -0.4232 
     30 C          25.5125   -0.8878   -3.0856 C.2       2 UNK         0.4993 
     31 O          26.2919   -0.6161   -4.0016 O.2       2 UNK        -0.5286 
     32 CA         25.9441   -1.9137   -2.0377 C.3       2 UNK         0.0209 
     33 CB         25.7036   -3.3488   -2.5368 C.3       2 UNK        -0.1931 
     34 N          27.3689   -1.7065   -1.7943 N.am      2 UNK        -0.4546 
     35 C          27.9747   -1.8181   -0.6081 C.2       1 UNK         0.5154 
     36 O          27.3935   -2.1880    0.4173 O.2       1 UNK        -0.5181 
     37 C          27.8041   -0.5909   -7.3019 C.2       5 UNK         0.5014 
     38 O          28.5305   -0.3350   -8.2592 O.2       5 UNK        -0.5248 
     39 N          27.5525    0.2693   -6.3053 N.am      6 UNK        -0.4434 
     40 CA         28.0856    1.6320   -6.2166 C.3       6 UNK         0.0363 
     41 CB         27.7874    2.1993   -4.8200 C.3       6 UNK        -0.1936 
     42 C          27.5645    2.5819   -7.3129 C.2       6 UNK         0.5081 
     43 O          28.2254    3.5780   -7.6079 O.2       6 UNK        -0.5248 
     44 N          26.3964    2.2768   -7.8940 N.am      7 UNK        -0.4718 
     45 CA         25.8697    2.9592   -9.0757 C.3       7 UNK         0.0273 
     46 CB         24.3414    2.8020   -9.1262 C.3       7 UNK        -0.1935 
     47 C          26.5160    2.4332  -10.3682 C.2       7 UNK         0.5018 
     48 O          26.8108    3.2294  -11.2605 O.2       7 UNK        -0.5186 
     49 N          26.7077    1.1091  -10.4551 N.am      8 UNK        -0.4240 
     50 CA         27.2601    0.4226  -11.6243 C.3       8 UNK         0.0235 
     51 CB         26.9467   -1.0793  -11.5263 C.3       8 UNK        -0.2000 
     52 C          28.7699    0.6398  -11.8250 C.2       8 UNK         0.4941 
     53 O          29.2066    0.7574  -12.9714 O.2       8 UNK        -0.5273 
     54 N          29.5415    0.6627  -10.7328 N.am      9 UNK        -0.4262 
     55 CA         31.0012    0.7535  -10.7325 C.3       9 UNK         0.0264 
     56 CB         31.5888   -0.6690  -10.8119 C.3       9 UNK        -0.1955 
     57 C          31.4820    1.4899   -9.4752 C.2       9 UNK         0.5031 
     58 O          30.6790    1.8119   -8.5992 O.2       9 UNK        -0.5390 
     59 N          32.7967    1.7268   -9.3776 N.am      10 UNK        -0.4204 
     60 CA         33.4619    2.4008   -8.2529 C.3       10 UNK         0.0237 
     61 CB         34.8323    2.9212   -8.7282 C.3       10 UNK        -0.1985 
     62 C          33.5671    1.5304   -6.9776 C.2       10 UNK         0.4970 
     63 O          34.6289    1.4782   -6.3542 O.2       10 UNK        -0.4914 
     64 N          32.4677    0.8634   -6.6143 N.am      11 UNK        -0.4285 
     65 CA         32.3326   -0.0028   -5.4337 C.3       11 UNK         0.1007 
     66 C          31.8752    0.7534   -4.1516 C.2       11 UNK         0.5703 
     67 N          31.5904    2.0497   -4.2045 N.am      11 UNK        -0.7361 
     68 O          31.7826    0.1531   -3.0838 O.2       11 UNK        -0.4986 
     69 C69        31.4037   -1.2081   -5.7246 C.3       12 UNK        -0.0947 
     70 S70        31.9717   -2.2445   -7.1212 S.3       12 UNK        -0.2240 
     71 C71        32.6966   -3.7035   -6.2926 C.3       12 UNK         0.0194 
     72 H72        30.9134    0.6944    3.1003 H         1 UNK         0.0906 
     73 H73        29.3819   -0.0002    3.6391 H         1 UNK         0.0906 
     74 H74        30.7306   -1.0568    3.2167 H         1 UNK         0.0906 
     75 H75        30.4010   -2.0471    1.2269 H         1 UNK         0.3140 
     76 H76        29.6021   -0.5319   -1.1185 H         1 UNK         0.1085 
     77 H77        30.0335   -2.6146   -2.3432 H         1 UNK         0.0836 
     78 H78        31.3844   -2.1950   -1.3374 H         1 UNK         0.0836 
     79 H79        32.4724   -4.7618   -1.4120 H         1 UNK         0.0731 
     80 H80        31.4474   -6.1717   -1.3020 H         1 UNK         0.0731 
     81 H81        32.9959   -4.1428   -3.6202 H         1 UNK         0.1312 
     82 H82        30.2478   -4.7432   -6.8443 H         1 UNK         0.1406 
     83 H83        29.1193   -5.7876   -2.8351 H         1 UNK         0.1631 
     84 H84        27.4000   -5.4992   -4.5054 H         1 UNK         0.0717 
     85 H85        28.0562   -6.6997   -5.5901 H         1 UNK         0.0717 
     86 H86        27.6404   -2.7602   -5.2805 H         1 UNK         0.0934 
     87 H87        28.9272   -2.8196   -6.4545 H         1 UNK         0.0934 
     88 H88        27.1379   -2.3514   -8.2703 H         1 UNK         0.0739 
     89 H89        25.4218   -2.1633   -5.9805 H         1 UNK         0.3093 
     90 H90        22.8036   -0.3839   -7.6464 H         1 UNK         0.0818 
     91 H91        21.5728   -2.3866   -6.8601 H         1 UNK         0.0819 
     92 H92        22.5763   -2.8011   -8.2390 H         1 UNK         0.0819 
     93 H93        23.0839   -3.2642   -6.6210 H         1 UNK         0.0819 
     94 H94        23.0864   -1.3809   -4.9699 H         1 UNK         0.3041 
     95 H95        24.4406    1.6185   -3.5810 H         1 UNK         0.0784 
     96 H96        21.9751    2.0008   -3.8063 H         1 UNK         0.0793 
     97 H97        21.6672    0.3381   -3.3248 H         1 UNK         0.0793 
     98 H98        22.4073    1.4692   -2.1911 H         1 UNK         0.0793 
     99 H99        23.7155   -0.6496   -2.1764 H         1 UNK         0.3024 
    100 H100       25.3779   -1.7435   -1.1188 H         1 UNK         0.1171 
    101 H101       24.6437   -3.5277   -2.7216 H         1 UNK         0.0786 
    102 H102       26.0328   -4.0824   -1.8006 H         1 UNK         0.0786 
    103 H103       26.2371   -3.5487   -3.4661 H         1 UNK         0.0786 
    104 H104       27.8752   -1.3472   -2.5937 H         1 UNK         0.2977 
    105 H105       26.9707   -0.0388   -5.5252 H         1 UNK         0.3127 
    106 H106       29.1693    1.5696   -6.3333 H         1 UNK         0.0770 
    107 H107       26.7145    2.2611   -4.6344 H         1 UNK         0.0814 
    108 H108       28.1989    3.2033   -4.7099 H         1 UNK         0.0814 
    109 H109       28.2290    1.5806   -4.0385 H         1 UNK         0.0814 
    110 H110       25.8650    1.4921   -7.5384 H         1 UNK         0.2983 
    111 H111       26.0940    4.0257   -9.0006 H         1 UNK         0.0947 
    112 H112       23.9247    3.3157   -9.9935 H         1 UNK         0.0806 
    113 H113       23.8716    3.2280   -8.2395 H         1 UNK         0.0806 
    114 H114       24.0414    1.7557   -9.1906 H         1 UNK         0.0806 
    115 H115       26.3982    0.5217   -9.6881 H         1 UNK         0.3000 
    116 H116       26.7536    0.8133  -12.5096 H         1 UNK         0.0850 
    117 H117       27.3176   -1.6148  -12.4013 H         1 UNK         0.0810 
    118 H118       25.8728   -1.2578  -11.4672 H         1 UNK         0.0810 
    119 H119       27.4090   -1.5294  -10.6470 H         1 UNK         0.0810 
    120 H120       29.1201    0.5603   -9.8088 H         1 UNK         0.3040 
    121 H121       31.3325    1.3347  -11.5956 H         1 UNK         0.0766 
    122 H122       32.6789   -0.6576  -10.8229 H         1 UNK         0.0812 
    123 H123       31.2660   -1.1801  -11.7191 H         1 UNK         0.0812 
    124 H124       31.2754   -1.2752   -9.9609 H         1 UNK         0.0812 
    125 H125       33.3995    1.4027  -10.1203 H         1 UNK         0.3205 
    126 H126       32.8604    3.2709   -7.9810 H         1 UNK         0.0754 
    127 H127       35.3265    3.4995   -7.9461 H         1 UNK         0.0769 
    128 H128       34.7303    3.5774   -9.5929 H         1 UNK         0.0769 
    129 H129       35.5007    2.1040   -9.0025 H         1 UNK         0.0769 
    130 H130       31.6336    0.9930   -7.1809 H         1 UNK         0.2981 
    131 H131       33.3165   -0.4099   -5.1940 H         1 UNK         0.0541 
    132 H132       31.3045    2.5242   -3.3633 H         1 UNK         0.3459 
    133 H133       31.6693    2.5569   -5.0704 H         1 UNK         0.3459 
    134 H134       30.4024   -0.8505   -5.9644 H         1 UNK         0.0612 
    135 H135       31.2895   -1.8258   -4.8338 H         1 UNK         0.0612 
    136 H136       33.0071   -4.4232   -7.0510 H         1 UNK         0.0624 
    137 H137       33.6024   -3.3910   -5.7709 H         1 UNK         0.0624 
@<TRIPOS>BOND
     1    1    2 1    
     2    1   72 1    
     3    1   73 1    
     4    1   74 1    
     5    2    3 2    
     6    2    4 am   BACKBONE|DICT|INTERRES
     7    4    5 1    
     8    4   75 1    
     9    5    6 1    
    10    5   35 1    
    11    5   76 1    
    12    6    7 1    
    13    6   77 1    
    14    6   78 1    
    15    7    8 1    
    16    8    9 1    
    17    8   79 1    
    18    8   80 1    
    19    9   10 ar   
    20    9   14 ar   
    21   10   11 ar   
    22   10   81 1    
    23   11   12 ar   
    24   11   71 1    
    25   12   13 ar   
    26   12   82 1    
    27   13   14 ar   
    28   13   15 1    
    29   14   83 1    
    30   15   16 1    
    31   15   84 1    
    32   15   85 1    
    33   16   17 1    
    34   17   18 1    
    35   17   86 1    
    36   17   87 1    
    37   18   19 1    
    38   18   37 1    
    39   18   88 1    
    40   19   20 am   BACKBONE|DICT|INTERRES
    41   19   89 1    
    42   20   21 2    
    43   20   22 1    
    44   22   23 1    
    45   22   24 1    
    46   22   90 1    
    47   23   91 1    
    48   23   92 1    
    49   23   93 1    
    50   24   25 am   BACKBONE|DICT|INTERRES
    51   24   94 1    
    52   25   26 2    
    53   25   27 1    
    54   27   28 1    
    55   27   29 1    
    56   27   95 1    
    57   28   96 1    
    58   28   97 1    
    59   28   98 1    
    60   29   30 am   BACKBONE|DICT|INTERRES
    61   29   99 1    
    62   30   31 2    
    63   30   32 1    
    64   32   33 1    
    65   32   34 1    
    66   32  100 1    
    67   33  101 1    
    68   33  102 1    
    69   33  103 1    
    70   34   35 am   BACKBONE|DICT|INTERRES
    71   34  104 1    
    72   35   36 2    
    73   37   38 2    
    74   37   39 am   BACKBONE|DICT|INTERRES
    75   39   40 1    
    76   39  105 1    
    77   40   41 1    
    78   40   42 1    
    79   40  106 1    
    80   41  107 1    
    81   41  108 1    
    82   41  109 1    
    83   42   43 2    
    84   42   44 am   BACKBONE|DICT|INTERRES
    85   44   45 1    
    86   44  110 1    
    87   45   46 1    
    88   45   47 1    
    89   45  111 1    
    90   46  112 1    
    91   46  113 1    
    92   46  114 1    
    93   47   48 2    
    94   47   49 am   BACKBONE|DICT|INTERRES
    95   49   50 1    
    96   49  115 1    
    97   50   51 1    
    98   50   52 1    
    99   50  116 1    
   100   51  117 1    
   101   51  118 1    
   102   51  119 1    
   103   52   53 2    
   104   52   54 am   BACKBONE|DICT|INTERRES
   105   54   55 1    
   106   54  120 1    
   107   55   56 1    
   108   55   57 1    
   109   55  121 1    
   110   56  122 1    
   111   56  123 1    
   112   56  124 1    
   113   57   58 2    
   114   57   59 am   BACKBONE|DICT|INTERRES
   115   59   60 1    
   116   59  125 1    
   117   60   61 1    
   118   60   62 1    
   119   60  126 1    
   120   61  127 1    
   121   61  128 1    
   122   61  129 1    
   123   62   63 2    
   124   62   64 am   BACKBONE|DICT|INTERRES
   125   64   65 1    
   126   64  130 1    
   127   65   66 1    
   128   65   69 1    
   129   65  131 1    
   130   66   67 am   BACKBONE|DICT|INTERRES
   131   66   68 2    
   132   67  132 1    
   133   67  133 1    
   134   69   70 1    
   135   69  134 1    
   136   69  135 1    
   137   70   71 1    
   138   71  136 1    
   139   71  137 1    
@<TRIPOS>SUBSTRUCTURE
     1 UNK         1 GROUP             0       ****    0 ROOT    
