@<TRIPOS>MOLECULE
3R137
137   139    1
SMALL
USER_CHARGES


@<TRIPOS>ATOM
      1 CA         24.9959   -3.4271    3.1695 C.3       0 UNK        -0.2020 
      2 C          25.2287   -3.2799    1.6736 C.2       0 UNK         0.4855 
      3 O          24.5405   -3.9273    0.8834 O.2       0 UNK        -0.5197 
      4 N          26.1890   -2.4300    1.2811 N.am      1 UNK        -0.4892 
      5 CA         26.5871   -2.1018   -0.0960 C.3       1 UNK         0.0835 
      6 C6         27.0113   -3.3461   -0.9227 C.3       12 UNK        -0.0855 
      7 S7         28.0550   -2.9161   -2.3498 S.3       12 UNK        -0.2931 
      8 C8         29.7111   -3.3718   -1.7540 C.3       12 UNK         0.0378 
      9 C9         30.7702   -3.0988   -2.8128 C.ar      12 UNK        -0.0802 
     10 C10        31.6650   -2.0330   -2.6692 C.ar      12 UNK        -0.0944 
     11 C11        32.6575   -1.8025   -3.6285 C.ar      12 UNK        -0.0787 
     12 C12        32.7472   -2.6508   -4.7364 C.ar      12 UNK        -0.0862 
     13 C13        31.8310   -3.6898   -4.9156 C.ar      12 UNK        -0.0733 
     14 C14        30.8579   -3.9217   -3.9391 C.ar      12 UNK        -0.0832 
     15 C15        31.8959   -4.5583   -6.1648 C.3       12 UNK         0.0240 
     16 S16        31.2074   -3.7132   -7.6284 S.3       12 UNK        -0.2522 
     17 C17        29.4307   -3.6266   -7.2140 C.3       12 UNK        -0.0967 
     18 CA         28.7155   -2.3791   -7.8005 C.3       5 UNK         0.0660 
     19 N          27.2515   -2.4571   -7.7347 N.am      5 UNK        -0.4015 
     20 C          26.5066   -2.5840   -6.6294 C.2       4 UNK         0.4946 
     21 O          26.9700   -2.7831   -5.5067 O.2       4 UNK        -0.5353 
     22 CA         24.9900   -2.3941   -6.7877 C.3       4 UNK         0.0277 
     23 CB         24.2437   -3.7125   -6.5297 C.3       4 UNK        -0.1981 
     24 N          24.4952   -1.3686   -5.8659 N.am      4 UNK        -0.4209 
     25 C          24.9238   -0.1019   -5.8061 C.2       3 UNK         0.4942 
     26 O          25.7476    0.3728   -6.5908 O.2       3 UNK        -0.5208 
     27 CA         24.3607    0.8055   -4.6980 C.3       3 UNK         0.0250 
     28 CB         23.1027    1.5448   -5.1920 C.3       3 UNK        -0.1990 
     29 N          24.1262    0.1697   -3.3912 N.am      3 UNK        -0.4232 
     30 C          23.2477   -0.7812   -3.0459 C.2       2 UNK         0.4993 
     31 O          22.5440   -1.3906   -3.8539 O.2       2 UNK        -0.5286 
     32 CA         23.1397   -1.0955   -1.5395 C.3       2 UNK         0.0209 
     33 CB         21.9027   -1.9510   -1.2070 C.3       2 UNK        -0.1931 
     34 N          24.3236   -1.7632   -0.9938 N.am      2 UNK        -0.4546 
     35 C          25.5335   -1.2219   -0.8051 C.2       1 UNK         0.5154 
     36 O          25.8140   -0.0619   -1.1145 O.2       1 UNK        -0.5181 
     37 C          29.2444   -1.0424   -7.2307 C.2       5 UNK         0.5014 
     38 O          29.8456   -0.2746   -7.9844 O.2       5 UNK        -0.5248 
     39 N          28.9930   -0.7761   -5.9403 N.am      6 UNK        -0.4434 
     40 CA         29.5085    0.3620   -5.1696 C.3       6 UNK         0.0363 
     41 CB         28.9258    0.3401   -3.7487 C.3       6 UNK        -0.1936 
     42 C          29.2861    1.7429   -5.8047 C.2       6 UNK         0.5081 
     43 O          30.2180    2.5455   -5.8464 O.2       6 UNK        -0.5248 
     44 N          28.0666    1.9884   -6.2933 N.am      7 UNK        -0.4718 
     45 CA         27.7016    3.1994   -7.0255 C.3       7 UNK         0.0273 
     46 CB         26.4133    3.7961   -6.4349 C.3       7 UNK        -0.1935 
     47 C          27.5202    2.8780   -8.5118 C.2       7 UNK         0.5018 
     48 O          28.0391    3.6125   -9.3515 O.2       7 UNK        -0.5186 
     49 N          26.8157    1.7753   -8.8099 N.am      8 UNK        -0.4240 
     50 CA         26.4205    1.3575  -10.1590 C.3       8 UNK         0.0235 
     51 CB         25.5125    0.1219  -10.0611 C.3       8 UNK        -0.2000 
     52 C          27.5879    1.0946  -11.1267 C.2       8 UNK         0.4941 
     53 O          27.4294    1.3353  -12.3242 O.2       8 UNK        -0.5273 
     54 N          28.7280    0.6254  -10.6029 N.am      9 UNK        -0.4262 
     55 CA         29.9678    0.4192  -11.3564 C.3       9 UNK         0.0264 
     56 CB         30.3081   -1.0832  -11.3587 C.3       9 UNK        -0.1955 
     57 C          31.1301    1.2428  -10.7753 C.2       9 UNK         0.5031 
     58 O          32.2688    1.0319  -11.1943 O.2       9 UNK        -0.5390 
     59 N          30.8506    2.1275   -9.8030 N.am      10 UNK        -0.4204 
     60 CA         31.8122    2.9069   -9.0094 C.3       10 UNK         0.0237 
     61 CB         32.4016    4.0509   -9.8613 C.3       10 UNK        -0.1985 
     62 C          32.8979    2.0314   -8.3419 C.2       10 UNK         0.4970 
     63 O          34.0752    2.3950   -8.3631 O.2       10 UNK        -0.4914 
     64 N          32.4784    0.8748   -7.8105 N.am      11 UNK        -0.4285 
     65 CA         33.3140   -0.2178   -7.2852 C.3       11 UNK         0.1007 
     66 C          34.0859   -1.0335   -8.3679 C.2       11 UNK         0.5703 
     67 N          33.9069   -0.7984   -9.6621 N.am      11 UNK        -0.7361 
     68 O          34.8473   -1.9359   -8.0274 O.2       11 UNK        -0.4986 
     69 C69        34.2375    0.1938   -6.0966 C.3       12 UNK        -0.0947 
     70 S70        33.3278    0.7252   -4.6071 S.3       12 UNK        -0.2240 
     71 C71        33.6425   -0.6528   -3.4521 C.3       12 UNK         0.0194 
     72 H72        23.9738   -3.1437    3.4191 H         1 UNK         0.0906 
     73 H73        25.1452   -4.4635    3.4713 H         1 UNK         0.0906 
     74 H74        25.6731   -2.8035    3.7528 H         1 UNK         0.0906 
     75 H75        26.6904   -1.9145    1.9925 H         1 UNK         0.3140 
     76 H76        27.4735   -1.4746    0.0177 H         1 UNK         0.1085 
     77 H77        27.5606   -4.0443   -0.2893 H         1 UNK         0.0836 
     78 H78        26.1435   -3.9008   -1.2836 H         1 UNK         0.0836 
     79 H79        29.9291   -2.8199   -0.8383 H         1 UNK         0.0731 
     80 H80        29.7256   -4.4307   -1.4914 H         1 UNK         0.0731 
     81 H81        31.5934   -1.3867   -1.8051 H         1 UNK         0.1312 
     82 H82        33.5202   -2.4961   -5.4748 H         1 UNK         0.1406 
     83 H83        30.1534   -4.7338   -4.0594 H         1 UNK         0.1631 
     84 H84        31.3685   -5.5010   -6.0108 H         1 UNK         0.0717 
     85 H85        32.9353   -4.8202   -6.3685 H         1 UNK         0.0717 
     86 H86        28.9622   -4.5332   -7.5996 H         1 UNK         0.0934 
     87 H87        29.3007   -3.6660   -6.1339 H         1 UNK         0.0934 
     88 H88        28.9374   -2.3638   -8.8683 H         1 UNK         0.0739 
     89 H89        26.7766   -2.3034   -8.6118 H         1 UNK         0.3093 
     90 H90        24.7688   -2.0605   -7.8033 H         1 UNK         0.0818 
     91 H91        23.1691   -3.5951   -6.6713 H         1 UNK         0.0819 
     92 H92        24.5786   -4.4926   -7.2146 H         1 UNK         0.0819 
     93 H93        24.4098   -4.0754   -5.5142 H         1 UNK         0.0819 
     94 H94        23.7962   -1.6494   -5.1822 H         1 UNK         0.3041 
     95 H95        25.1273    1.5593   -4.5114 H         1 UNK         0.0784 
     96 H96        23.3018    2.0780   -6.1225 H         1 UNK         0.0793 
     97 H97        22.2767    0.8594   -5.3842 H         1 UNK         0.0793 
     98 H98        22.7647    2.2816   -4.4633 H         1 UNK         0.0793 
     99 H99        24.7363    0.4905   -2.6431 H         1 UNK         0.3024 
    100 H100       23.0244   -0.1390   -1.0243 H         1 UNK         0.1171 
    101 H101       21.9632   -2.9413   -1.6606 H         1 UNK         0.0786 
    102 H102       20.9896   -1.4790   -1.5726 H         1 UNK         0.0786 
    103 H103       21.7889   -2.0828   -0.1307 H         1 UNK         0.0786 
    104 H104       24.1916   -2.7052   -0.6374 H         1 UNK         0.2977 
    105 H105       28.4309   -1.4561   -5.4339 H         1 UNK         0.3127 
    106 H106       30.5852    0.2155   -5.0931 H         1 UNK         0.0770 
    107 H107       29.3032   -0.5119   -3.1887 H         1 UNK         0.0814 
    108 H108       27.8363    0.2869   -3.7540 H         1 UNK         0.0814 
    109 H109       29.2099    1.2327   -3.1896 H         1 UNK         0.0814 
    110 H110       27.3603    1.2586   -6.2442 H         1 UNK         0.2983 
    111 H111       28.4878    3.9532   -6.9422 H         1 UNK         0.0947 
    112 H112       26.1479    4.7244   -6.9425 H         1 UNK         0.0806 
    113 H113       26.5346    4.0287   -5.3768 H         1 UNK         0.0806 
    114 H114       25.5649    3.1192   -6.5334 H         1 UNK         0.0806 
    115 H115       26.4243    1.2370   -8.0391 H         1 UNK         0.3000 
    116 H116       25.8330    2.1745  -10.5832 H         1 UNK         0.0850 
    117 H117       25.1422   -0.1693  -11.0451 H         1 UNK         0.0810 
    118 H118       24.6429    0.3147   -9.4321 H         1 UNK         0.0810 
    119 H119       26.0442   -0.7329   -9.6472 H         1 UNK         0.0810 
    120 H120       28.7838    0.4357   -9.6075 H         1 UNK         0.3040 
    121 H121       29.8480    0.7433  -12.3920 H         1 UNK         0.0766 
    122 H122       31.1544   -1.2901  -12.0150 H         1 UNK         0.0812 
    123 H123       29.4702   -1.6823  -11.7152 H         1 UNK         0.0812 
    124 H124       30.5801   -1.4378  -10.3641 H         1 UNK         0.0812 
    125 H125       29.8774    2.2739   -9.5691 H         1 UNK         0.3205 
    126 H126       31.2442    3.3610   -8.1966 H         1 UNK         0.0754 
    127 H127       33.0330    4.7041   -9.2578 H         1 UNK         0.0769 
    128 H128       31.6140    4.6702  -10.2907 H         1 UNK         0.0769 
    129 H129       33.0132    3.6702  -10.6801 H         1 UNK         0.0769 
    130 H130       31.4895    0.6472   -7.8762 H         1 UNK         0.2981 
    131 H131       32.5841   -0.9278   -6.8994 H         1 UNK         0.0541 
    132 H132       33.2955   -0.0604   -9.9969 H         1 UNK         0.3459 
    133 H133       34.4141   -1.3577  -10.3282 H         1 UNK         0.3459 
    134 H134       34.9100    1.0000   -6.3886 H         1 UNK         0.0612 
    135 H135       34.8965   -0.6274   -5.8135 H         1 UNK         0.0612 
    136 H136       34.6647   -1.0165   -3.5630 H         1 UNK         0.0624 
    137 H137       33.5773   -0.2595   -2.4366 H         1 UNK         0.0624 
@<TRIPOS>BOND
     1    1    2 1    
     2    1   72 1    
     3    1   73 1    
     4    1   74 1    
     5    2    3 2    
     6    2    4 am   BACKBONE|DICT|INTERRES
     7    4    5 1    
     8    4   75 1    
     9    5    6 1    
    10    5   35 1    
    11    5   76 1    
    12    6    7 1    
    13    6   77 1    
    14    6   78 1    
    15    7    8 1    
    16    8    9 1    
    17    8   79 1    
    18    8   80 1    
    19    9   10 ar   
    20    9   14 ar   
    21   10   11 ar   
    22   10   81 1    
    23   11   12 ar   
    24   11   71 1    
    25   12   13 ar   
    26   12   82 1    
    27   13   14 ar   
    28   13   15 1    
    29   14   83 1    
    30   15   16 1    
    31   15   84 1    
    32   15   85 1    
    33   16   17 1    
    34   17   18 1    
    35   17   86 1    
    36   17   87 1    
    37   18   19 1    
    38   18   37 1    
    39   18   88 1    
    40   19   20 am   BACKBONE|DICT|INTERRES
    41   19   89 1    
    42   20   21 2    
    43   20   22 1    
    44   22   23 1    
    45   22   24 1    
    46   22   90 1    
    47   23   91 1    
    48   23   92 1    
    49   23   93 1    
    50   24   25 am   BACKBONE|DICT|INTERRES
    51   24   94 1    
    52   25   26 2    
    53   25   27 1    
    54   27   28 1    
    55   27   29 1    
    56   27   95 1    
    57   28   96 1    
    58   28   97 1    
    59   28   98 1    
    60   29   30 am   BACKBONE|DICT|INTERRES
    61   29   99 1    
    62   30   31 2    
    63   30   32 1    
    64   32   33 1    
    65   32   34 1    
    66   32  100 1    
    67   33  101 1    
    68   33  102 1    
    69   33  103 1    
    70   34   35 am   BACKBONE|DICT|INTERRES
    71   34  104 1    
    72   35   36 2    
    73   37   38 2    
    74   37   39 am   BACKBONE|DICT|INTERRES
    75   39   40 1    
    76   39  105 1    
    77   40   41 1    
    78   40   42 1    
    79   40  106 1    
    80   41  107 1    
    81   41  108 1    
    82   41  109 1    
    83   42   43 2    
    84   42   44 am   BACKBONE|DICT|INTERRES
    85   44   45 1    
    86   44  110 1    
    87   45   46 1    
    88   45   47 1    
    89   45  111 1    
    90   46  112 1    
    91   46  113 1    
    92   46  114 1    
    93   47   48 2    
    94   47   49 am   BACKBONE|DICT|INTERRES
    95   49   50 1    
    96   49  115 1    
    97   50   51 1    
    98   50   52 1    
    99   50  116 1    
   100   51  117 1    
   101   51  118 1    
   102   51  119 1    
   103   52   53 2    
   104   52   54 am   BACKBONE|DICT|INTERRES
   105   54   55 1    
   106   54  120 1    
   107   55   56 1    
   108   55   57 1    
   109   55  121 1    
   110   56  122 1    
   111   56  123 1    
   112   56  124 1    
   113   57   58 2    
   114   57   59 am   BACKBONE|DICT|INTERRES
   115   59   60 1    
   116   59  125 1    
   117   60   61 1    
   118   60   62 1    
   119   60  126 1    
   120   61  127 1    
   121   61  128 1    
   122   61  129 1    
   123   62   63 2    
   124   62   64 am   BACKBONE|DICT|INTERRES
   125   64   65 1    
   126   64  130 1    
   127   65   66 1    
   128   65   69 1    
   129   65  131 1    
   130   66   67 am   BACKBONE|DICT|INTERRES
   131   66   68 2    
   132   67  132 1    
   133   67  133 1    
   134   69   70 1    
   135   69  134 1    
   136   69  135 1    
   137   70   71 1    
   138   71  136 1    
   139   71  137 1    
@<TRIPOS>SUBSTRUCTURE
     1 UNK         1 GROUP             0       ****    0 ROOT    
