@<TRIPOS>MOLECULE
3R137
137   139    1
SMALL
USER_CHARGES


@<TRIPOS>ATOM
      1 CA         30.9185    0.7694   -1.1120 C.3       0 UNK        -0.2020 
      2 C          30.0156   -0.3083   -1.6879 C.2       0 UNK         0.4855 
      3 O          29.6059   -0.2233   -2.8439 O.2       0 UNK        -0.5197 
      4 N          29.6618   -1.3079   -0.8726 N.am      1 UNK        -0.4892 
      5 CA         28.8410   -2.4738   -1.2389 C.3       1 UNK         0.0835 
      6 C6         29.1543   -3.6982   -0.3333 C.3       12 UNK        -0.0855 
      7 S7         30.9424   -4.0538   -0.1659 S.3       12 UNK        -0.2931 
      8 C8         31.1637   -5.5342   -1.2024 C.3       12 UNK         0.0378 
      9 C9         31.1005   -5.2061   -2.6866 C.ar      12 UNK        -0.0802 
     10 C10        32.2120   -4.6571   -3.3368 C.ar      12 UNK        -0.0944 
     11 C11        32.1622   -4.3635   -4.7039 C.ar      12 UNK        -0.0787 
     12 C12        30.9914   -4.6299   -5.4182 C.ar      12 UNK        -0.0862 
     13 C13        29.8684   -5.1514   -4.7741 C.ar      12 UNK        -0.0733 
     14 C14        29.9322   -5.4555   -3.4118 C.ar      12 UNK        -0.0832 
     15 C15        28.5707   -5.3255   -5.5451 C.3       12 UNK         0.0240 
     16 S16        27.2671   -4.2066   -4.9398 S.3       12 UNK        -0.2522 
     17 C17        28.0680   -2.5607   -4.9847 C.3       12 UNK        -0.0967 
     18 CA         27.7881   -1.7670   -6.2768 C.3       5 UNK         0.0660 
     19 N          26.3623   -1.7003   -6.6025 N.am      5 UNK        -0.4015 
     20 C          25.8815   -1.2220   -7.7576 C.2       4 UNK         0.4946 
     21 O          26.6008   -0.8222   -8.6743 O.2       4 UNK        -0.5353 
     22 CA         24.3535   -1.1232   -7.9127 C.3       4 UNK         0.0277 
     23 CB         23.8172   -2.3480   -8.6691 C.3       4 UNK        -0.1981 
     24 N          23.6220   -0.9687   -6.6497 N.am      4 UNK        -0.4209 
     25 C          23.8011    0.0201   -5.7616 C.2       3 UNK         0.4942 
     26 O          24.6184    0.9303   -5.9148 O.2       3 UNK        -0.5208 
     27 CA         22.9746   -0.0240   -4.4603 C.3       3 UNK         0.0250 
     28 CB         22.0583   -1.2627   -4.3262 C.3       3 UNK        -0.1990 
     29 N          23.8351    0.1080   -3.2766 N.am      3 UNK        -0.4232 
     30 C          24.8785   -0.6727   -2.9556 C.2       2 UNK         0.4993 
     31 O          25.2301   -1.6459   -3.6242 O.2       2 UNK        -0.5286 
     32 CA         25.6567   -0.2598   -1.6933 C.3       2 UNK         0.0209 
     33 CB         24.8226   -0.4706   -0.4117 C.3       2 UNK        -0.1931 
     34 N          26.9828   -0.8865   -1.5875 N.am      2 UNK        -0.4546 
     35 C          27.3214   -2.1476   -1.2716 C.2       1 UNK         0.5154 
     36 O          26.5069   -3.0241   -0.9768 O.2       1 UNK        -0.5181 
     37 C          28.4163   -0.3607   -6.1810 C.2       5 UNK         0.5014 
     38 O          29.5542   -0.1696   -6.6094 O.2       5 UNK        -0.5248 
     39 N          27.6522    0.6048   -5.6550 N.am      6 UNK        -0.4434 
     40 CA         28.0538    2.0043   -5.5693 C.3       6 UNK         0.0363 
     41 CB         27.4054    2.6435   -4.3310 C.3       6 UNK        -0.1936 
     42 C          27.6745    2.7697   -6.8452 C.2       6 UNK         0.5081 
     43 O          28.4790    3.5619   -7.3331 O.2       6 UNK        -0.5248 
     44 N          26.4564    2.5382   -7.3531 N.am      7 UNK        -0.4718 
     45 CA         25.8730    3.2975   -8.4597 C.3       7 UNK         0.0273 
     46 CB         24.3440    3.1410   -8.4351 C.3       7 UNK        -0.1935 
     47 C          26.4285    2.9339   -9.8458 C.2       7 UNK         0.5018 
     48 O          26.5860    3.8369  -10.6685 O.2       7 UNK        -0.5186 
     49 N          26.6817    1.6419  -10.0987 N.am      8 UNK        -0.4240 
     50 CA         27.0896    1.1290  -11.4096 C.3       8 UNK         0.0235 
     51 CB         26.1064    0.0412  -11.8780 C.3       8 UNK        -0.2000 
     52 C          28.5279    0.6002  -11.3895 C.2       8 UNK         0.4941 
     53 O          29.3102    0.9801  -12.2618 O.2       8 UNK        -0.5273 
     54 N          28.8648   -0.2569  -10.4123 N.am      9 UNK        -0.4262 
     55 CA         30.2047   -0.8547  -10.2991 C.3       9 UNK         0.0264 
     56 CB         30.1519   -2.1335   -9.4477 C.3       9 UNK        -0.1955 
     57 C          31.2687    0.1222   -9.7614 C.2       9 UNK         0.5031 
     58 O          32.4560   -0.1008  -10.0024 O.2       9 UNK        -0.5390 
     59 N          30.8249    1.1835   -9.0706 N.am      10 UNK        -0.4204 
     60 CA         31.6183    2.2774   -8.4991 C.3       10 UNK         0.0237 
     61 CB         32.2800    3.1151   -9.6149 C.3       10 UNK        -0.1985 
     62 C          32.6116    1.8217   -7.4119 C.2       10 UNK         0.4970 
     63 O          33.7162    2.3628   -7.3279 O.2       10 UNK        -0.4914 
     64 N          32.1981    0.8552   -6.5826 N.am      11 UNK        -0.4285 
     65 CA         32.9729    0.3575   -5.4338 C.3       11 UNK         0.1007 
     66 C          32.9680    1.3062   -4.2005 C.2       11 UNK         0.5703 
     67 N          32.1503    2.3525   -4.1608 N.am      11 UNK        -0.7361 
     68 O          33.7448    1.1029   -3.2707 O.2       11 UNK        -0.4986 
     69 C69        32.5553   -1.0840   -5.0454 C.3       12 UNK        -0.0947 
     70 S70        32.9461   -2.2712   -6.3732 S.3       12 UNK        -0.2240 
     71 C71        33.3698   -3.7644   -5.4150 C.3       12 UNK         0.0194 
     72 H72        30.6910    1.7353   -1.5619 H         1 UNK         0.0906 
     73 H73        30.7937    0.8626   -0.0334 H         1 UNK         0.0906 
     74 H74        31.9614    0.5322   -1.3170 H         1 UNK         0.0906 
     75 H75        30.0191   -1.3214    0.0724 H         1 UNK         0.3140 
     76 H76        29.1115   -2.7588   -2.2576 H         1 UNK         0.1085 
     77 H77        28.7608   -3.5314    0.6712 H         1 UNK         0.0836 
     78 H78        28.6455   -4.5884   -0.7072 H         1 UNK         0.0836 
     79 H79        30.4191   -6.2860   -0.9355 H         1 UNK         0.0731 
     80 H80        32.1340   -5.9780   -0.9742 H         1 UNK         0.0731 
     81 H81        33.1138   -4.4567   -2.7743 H         1 UNK         0.1312 
     82 H82        30.9451   -4.3938   -6.4727 H         1 UNK         0.1406 
     83 H83        29.0609   -5.8603   -2.9147 H         1 UNK         0.1631 
     84 H84        28.2282   -6.3569   -5.4511 H         1 UNK         0.0717 
     85 H85        28.7205   -5.1452   -6.6108 H         1 UNK         0.0717 
     86 H86        27.7018   -2.0008   -4.1264 H         1 UNK         0.0934 
     87 H87        29.1427   -2.6463   -4.8234 H         1 UNK         0.0934 
     88 H88        28.2749   -2.2949   -7.0967 H         1 UNK         0.0739 
     89 H89        25.7248   -1.9901   -5.8706 H         1 UNK         0.3093 
     90 H90        24.1510   -0.2385   -8.5179 H         1 UNK         0.0818 
     91 H91        22.7531   -2.2488   -8.8840 H         1 UNK         0.0819 
     92 H92        24.3278   -2.4696   -9.6258 H         1 UNK         0.0819 
     93 H93        23.9630   -3.2689   -8.1028 H         1 UNK         0.0819 
     94 H94        22.9454   -1.6850   -6.4291 H         1 UNK         0.3041 
     95 H95        22.3364    0.8606   -4.4810 H         1 UNK         0.0784 
     96 H96        21.3347   -1.3142   -5.1408 H         1 UNK         0.0793 
     97 H97        22.6235   -2.1957   -4.3170 H         1 UNK         0.0793 
     98 H98        21.4849   -1.2218   -3.3999 H         1 UNK         0.0793 
     99 H99        23.6376    0.9068   -2.6902 H         1 UNK         0.3024 
    100 H100       25.8549    0.8094   -1.7875 H         1 UNK         0.1171 
    101 H101       23.9281    0.1529   -0.4160 H         1 UNK         0.0786 
    102 H102       24.4903   -1.5038   -0.3068 H         1 UNK         0.0786 
    103 H103       25.3916   -0.2088    0.4804 H         1 UNK         0.0786 
    104 H104       27.7569   -0.3014   -1.8813 H         1 UNK         0.2977 
    105 H105       26.6978    0.3877   -5.3968 H         1 UNK         0.3127 
    106 H106       29.1373    2.0659   -5.4461 H         1 UNK         0.0770 
    107 H107       26.3162    2.6001   -4.3725 H         1 UNK         0.0814 
    108 H108       27.6882    3.6932   -4.2417 H         1 UNK         0.0814 
    109 H109       27.7278    2.1426   -3.4179 H         1 UNK         0.0814 
    110 H110       25.8353    1.8956   -6.8640 H         1 UNK         0.2983 
    111 H111       26.0971    4.3538   -8.2924 H         1 UNK         0.0947 
    112 H112       23.8775    3.7371   -9.2206 H         1 UNK         0.0806 
    113 H113       23.9269    3.4742   -7.4847 H         1 UNK         0.0806 
    114 H114       24.0397    2.1060   -8.5876 H         1 UNK         0.0806 
    115 H115       26.5585    0.9496   -9.3654 H         1 UNK         0.3000 
    116 H116       27.0570    1.9271  -12.1545 H         1 UNK         0.0850 
    117 H117       26.3722   -0.3185  -12.8729 H         1 UNK         0.0810 
    118 H118       25.0890    0.4280  -11.9355 H         1 UNK         0.0810 
    119 H119       26.0966   -0.8235  -11.2148 H         1 UNK         0.0810 
    120 H120       28.1558   -0.5446   -9.7408 H         1 UNK         0.3040 
    121 H121       30.5188   -1.1501  -11.3027 H         1 UNK         0.0766 
    122 H122       30.0667   -1.9109   -8.3872 H         1 UNK         0.0812 
    123 H123       31.0699   -2.7100   -9.5700 H         1 UNK         0.0812 
    124 H124       29.3209   -2.7789   -9.7328 H         1 UNK         0.0812 
    125 H125       29.8317    1.2273   -8.8919 H         1 UNK         0.3205 
    126 H126       30.9093    2.9284   -7.9889 H         1 UNK         0.0754 
    127 H127       32.7484    4.0116   -9.2068 H         1 UNK         0.0769 
    128 H128       31.5463    3.4420  -10.3519 H         1 UNK         0.0769 
    129 H129       33.0542    2.5533  -10.1384 H         1 UNK         0.0769 
    130 H130       31.2667    0.4575   -6.6947 H         1 UNK         0.2981 
    131 H131       34.0186    0.3105   -5.7443 H         1 UNK         0.0541 
    132 H132       31.5152    2.5301   -4.9201 H         1 UNK         0.3459 
    133 H133       32.1763    2.9688   -3.3649 H         1 UNK         0.3459 
    134 H134       31.4872   -1.1353   -4.8260 H         1 UNK         0.0612 
    135 H135       33.0696   -1.4029   -4.1370 H         1 UNK         0.0612 
    136 H136       33.7792   -4.5113   -6.0961 H         1 UNK         0.0624 
    137 H137       34.1640   -3.5223   -4.7071 H         1 UNK         0.0624 
@<TRIPOS>BOND
     1    1    2 1    
     2    1   72 1    
     3    1   73 1    
     4    1   74 1    
     5    2    3 2    
     6    2    4 am   BACKBONE|DICT|INTERRES
     7    4    5 1    
     8    4   75 1    
     9    5    6 1    
    10    5   35 1    
    11    5   76 1    
    12    6    7 1    
    13    6   77 1    
    14    6   78 1    
    15    7    8 1    
    16    8    9 1    
    17    8   79 1    
    18    8   80 1    
    19    9   10 ar   
    20    9   14 ar   
    21   10   11 ar   
    22   10   81 1    
    23   11   12 ar   
    24   11   71 1    
    25   12   13 ar   
    26   12   82 1    
    27   13   14 ar   
    28   13   15 1    
    29   14   83 1    
    30   15   16 1    
    31   15   84 1    
    32   15   85 1    
    33   16   17 1    
    34   17   18 1    
    35   17   86 1    
    36   17   87 1    
    37   18   19 1    
    38   18   37 1    
    39   18   88 1    
    40   19   20 am   BACKBONE|DICT|INTERRES
    41   19   89 1    
    42   20   21 2    
    43   20   22 1    
    44   22   23 1    
    45   22   24 1    
    46   22   90 1    
    47   23   91 1    
    48   23   92 1    
    49   23   93 1    
    50   24   25 am   BACKBONE|DICT|INTERRES
    51   24   94 1    
    52   25   26 2    
    53   25   27 1    
    54   27   28 1    
    55   27   29 1    
    56   27   95 1    
    57   28   96 1    
    58   28   97 1    
    59   28   98 1    
    60   29   30 am   BACKBONE|DICT|INTERRES
    61   29   99 1    
    62   30   31 2    
    63   30   32 1    
    64   32   33 1    
    65   32   34 1    
    66   32  100 1    
    67   33  101 1    
    68   33  102 1    
    69   33  103 1    
    70   34   35 am   BACKBONE|DICT|INTERRES
    71   34  104 1    
    72   35   36 2    
    73   37   38 2    
    74   37   39 am   BACKBONE|DICT|INTERRES
    75   39   40 1    
    76   39  105 1    
    77   40   41 1    
    78   40   42 1    
    79   40  106 1    
    80   41  107 1    
    81   41  108 1    
    82   41  109 1    
    83   42   43 2    
    84   42   44 am   BACKBONE|DICT|INTERRES
    85   44   45 1    
    86   44  110 1    
    87   45   46 1    
    88   45   47 1    
    89   45  111 1    
    90   46  112 1    
    91   46  113 1    
    92   46  114 1    
    93   47   48 2    
    94   47   49 am   BACKBONE|DICT|INTERRES
    95   49   50 1    
    96   49  115 1    
    97   50   51 1    
    98   50   52 1    
    99   50  116 1    
   100   51  117 1    
   101   51  118 1    
   102   51  119 1    
   103   52   53 2    
   104   52   54 am   BACKBONE|DICT|INTERRES
   105   54   55 1    
   106   54  120 1    
   107   55   56 1    
   108   55   57 1    
   109   55  121 1    
   110   56  122 1    
   111   56  123 1    
   112   56  124 1    
   113   57   58 2    
   114   57   59 am   BACKBONE|DICT|INTERRES
   115   59   60 1    
   116   59  125 1    
   117   60   61 1    
   118   60   62 1    
   119   60  126 1    
   120   61  127 1    
   121   61  128 1    
   122   61  129 1    
   123   62   63 2    
   124   62   64 am   BACKBONE|DICT|INTERRES
   125   64   65 1    
   126   64  130 1    
   127   65   66 1    
   128   65   69 1    
   129   65  131 1    
   130   66   67 am   BACKBONE|DICT|INTERRES
   131   66   68 2    
   132   67  132 1    
   133   67  133 1    
   134   69   70 1    
   135   69  134 1    
   136   69  135 1    
   137   70   71 1    
   138   71  136 1    
   139   71  137 1    
@<TRIPOS>SUBSTRUCTURE
     1 UNK         1 GROUP             0       ****    0 ROOT    
