@<TRIPOS>MOLECULE
3R137
137   139    1
SMALL
USER_CHARGES


@<TRIPOS>ATOM
      1 CA         28.1434   -4.8267   -4.8866 C.3       0 UNK        -0.2020 
      2 C          29.1512   -3.9474   -4.1494 C.2       0 UNK         0.4855 
      3 O          30.0210   -3.3690   -4.7929 O.2       0 UNK        -0.5197 
      4 N          29.0868   -3.8250   -2.8158 N.am      1 UNK        -0.4892 
      5 CA         28.0696   -4.3998   -1.9242 C.3       1 UNK         0.0835 
      6 C6         28.5047   -4.4055   -0.4343 C.3       12 UNK        -0.0855 
      7 S7         30.1146   -5.2163   -0.1388 S.3       12 UNK        -0.2931 
      8 C8         31.1232   -3.8422    0.5139 C.3       12 UNK         0.0378 
      9 C9         31.5282   -2.8700   -0.5845 C.ar      12 UNK        -0.0802 
     10 C10        32.6446   -3.1446   -1.3816 C.ar      12 UNK        -0.0944 
     11 C11        33.0014   -2.2833   -2.4231 C.ar      12 UNK        -0.0787 
     12 C12        32.2357   -1.1399   -2.6598 C.ar      12 UNK        -0.0862 
     13 C13        31.1184   -0.8546   -1.8726 C.ar      12 UNK        -0.0733 
     14 C14        30.7800   -1.7111   -0.8207 C.ar      12 UNK        -0.0832 
     15 C15        30.2371    0.3341   -2.2176 C.3       12 UNK         0.0240 
     16 S16        28.9674   -0.2139   -3.3902 S.3       12 UNK        -0.2522 
     17 C17        28.0571    1.3112   -3.7972 C.3       12 UNK        -0.0967 
     18 CA         27.7521    1.4126   -5.3154 C.3       5 UNK         0.0660 
     19 N          27.2599    0.1568   -5.8911 N.am      5 UNK        -0.4015 
     20 C          27.2293   -0.1382   -7.1960 C.2       4 UNK         0.4946 
     21 O          27.6396    0.6217   -8.0736 O.2       4 UNK        -0.5353 
     22 CA         26.6756   -1.5146   -7.5977 C.3       4 UNK         0.0277 
     23 CB         27.8296   -2.4943   -7.8528 C.3       4 UNK        -0.1981 
     24 N          25.7685   -2.0773   -6.5952 N.am      4 UNK        -0.4209 
     25 C          24.5165   -1.6457   -6.3939 C.2       3 UNK         0.4942 
     26 O          23.9825   -0.7560   -7.0569 O.2       3 UNK        -0.5208 
     27 CA         23.7619   -2.2805   -5.2140 C.3       3 UNK         0.0250 
     28 CB         23.3293   -3.7184   -5.5446 C.3       3 UNK        -0.1990 
     29 N          24.5251   -2.2697   -3.9594 N.am      3 UNK        -0.4232 
     30 C          24.9845   -1.1696   -3.3484 C.2       2 UNK         0.4993 
     31 O          24.8950   -0.0373   -3.8231 O.2       2 UNK        -0.5286 
     32 CA         25.6811   -1.3483   -1.9921 C.3       2 UNK         0.0209 
     33 CB         24.6637   -1.6208   -0.8666 C.3       2 UNK        -0.1931 
     34 N          26.7787   -2.3253   -1.9948 N.am      2 UNK        -0.4546 
     35 C          26.7231   -3.6627   -2.0686 C.2       1 UNK         0.5154 
     36 O          25.6881   -4.3016   -2.2605 O.2       1 UNK        -0.5181 
     37 C          26.7573    2.5481   -5.6091 C.2       5 UNK         0.5014 
     38 O          27.1693    3.6161   -6.0603 O.2       5 UNK        -0.5248 
     39 N          25.4583    2.2676   -5.4195 N.am      6 UNK        -0.4434 
     40 CA         24.3400    3.1399   -5.7912 C.3       6 UNK         0.0363 
     41 CB         23.0293    2.5255   -5.2755 C.3       6 UNK        -0.1936 
     42 C          24.2536    3.4018   -7.3065 C.2       6 UNK         0.5081 
     43 O          23.8467    4.4908   -7.7107 O.2       6 UNK        -0.5248 
     44 N          24.6725    2.4174   -8.1142 N.am      7 UNK        -0.4718 
     45 CA         24.8084    2.5243   -9.5701 C.3       7 UNK         0.0273 
     46 CB         24.7605    1.1118  -10.1772 C.3       7 UNK        -0.1935 
     47 C          26.0875    3.2628  -10.0189 C.2       7 UNK         0.5018 
     48 O          26.2502    3.4826  -11.2196 O.2       7 UNK        -0.5186 
     49 N          26.9719    3.6121   -9.0701 N.am      8 UNK        -0.4240 
     50 CA         28.2727    4.2722   -9.2444 C.3       8 UNK         0.0235 
     51 CB         28.1060    5.6836   -9.8478 C.3       8 UNK        -0.2000 
     52 C          29.3181    3.4201   -9.9935 C.2       8 UNK         0.4941 
     53 O          30.2757    3.9758  -10.5350 O.2       8 UNK        -0.5273 
     54 N          29.1384    2.0932   -9.9937 N.am      9 UNK        -0.4262 
     55 CA         30.0768    1.1204  -10.5545 C.3       9 UNK         0.0264 
     56 CB         29.2873   -0.0159  -11.2256 C.3       9 UNK        -0.1955 
     57 C          31.0084    0.5635   -9.4675 C.2       9 UNK         0.5031 
     58 O          32.2032    0.3962   -9.7220 O.2       9 UNK        -0.5390 
     59 N          30.4440    0.2980   -8.2783 N.am      10 UNK        -0.4204 
     60 CA         31.0912   -0.2800   -7.0944 C.3       10 UNK         0.0237 
     61 CB         32.0211    0.7709   -6.4464 C.3       10 UNK        -0.1985 
     62 C          31.7714   -1.6301   -7.4133 C.2       10 UNK         0.4970 
     63 O          31.1973   -2.4322   -8.1529 O.2       10 UNK        -0.4914 
     64 N          32.9795   -1.8493   -6.8820 N.am      11 UNK        -0.4285 
     65 CA         33.8303   -3.0104   -7.1911 C.3       11 UNK         0.1007 
     66 C          34.6383   -2.8650   -8.5173 C.2       11 UNK         0.5703 
     67 N          34.4592   -1.8131   -9.3098 N.am      11 UNK        -0.7361 
     68 O          35.4418   -3.7348   -8.8459 O.2       11 UNK        -0.4986 
     69 C69        34.7393   -3.3948   -5.9908 C.3       12 UNK        -0.0947 
     70 S70        33.7640   -3.8862   -4.5281 S.3       12 UNK        -0.2240 
     71 C71        34.1910   -2.5974   -3.3167 C.3       12 UNK         0.0194 
     72 H72        28.1296   -5.8360   -4.4772 H         1 UNK         0.0906 
     73 H73        27.1393   -4.4105   -4.8322 H         1 UNK         0.0906 
     74 H74        28.4130   -4.9108   -5.9392 H         1 UNK         0.0906 
     75 H75        29.8110   -3.2849   -2.3601 H         1 UNK         0.3140 
     76 H76        27.9077   -5.4400   -2.2123 H         1 UNK         0.1085 
     77 H77        27.7622   -4.9376    0.1642 H         1 UNK         0.0836 
     78 H78        28.5305   -3.3937   -0.0282 H         1 UNK         0.0836 
     79 H79        32.0183   -4.2564    0.9804 H         1 UNK         0.0731 
     80 H80        30.5809   -3.3275    1.3087 H         1 UNK         0.0731 
     81 H81        33.2218   -4.0430   -1.2089 H         1 UNK         0.1312 
     82 H82        32.4918   -0.4841   -3.4772 H         1 UNK         0.1406 
     83 H83        29.9145   -1.4911   -0.2108 H         1 UNK         0.1631 
     84 H84        30.8300    1.1361   -2.6602 H         1 UNK         0.0717 
     85 H85        29.7657    0.7405   -1.3215 H         1 UNK         0.0717 
     86 H86        27.1412    1.3226   -3.2047 H         1 UNK         0.0934 
     87 H87        28.6351    2.1792   -3.4745 H         1 UNK         0.0934 
     88 H88        28.6881    1.6575   -5.8229 H         1 UNK         0.0739 
     89 H89        26.9031   -0.5177   -5.2320 H         1 UNK         0.3093 
     90 H90        26.1227   -1.3918   -8.5310 H         1 UNK         0.0818 
     91 H91        28.4656   -2.1431   -8.6661 H         1 UNK         0.0819 
     92 H92        28.4677   -2.6082   -6.9761 H         1 UNK         0.0819 
     93 H93        27.4636   -3.4810   -8.1368 H         1 UNK         0.0819 
     94 H94        26.1237   -2.8192   -6.0120 H         1 UNK         0.3041 
     95 H95        22.8608   -1.6856   -5.0500 H         1 UNK         0.0784 
     96 H96        22.7599   -3.7513   -6.4747 H         1 UNK         0.0793 
     97 H97        24.1839   -4.3860   -5.6602 H         1 UNK         0.0793 
     98 H98        22.6903   -4.1280   -4.7619 H         1 UNK         0.0793 
     99 H99        24.6710   -3.1576   -3.4870 H         1 UNK         0.3024 
    100 H100       26.1495   -0.3898   -1.7630 H         1 UNK         0.1171 
    101 H101       25.1532   -1.6675    0.1062 H         1 UNK         0.0786 
    102 H102       23.9202   -0.8241   -0.8160 H         1 UNK         0.0786 
    103 H103       24.1224   -2.5557   -1.0142 H         1 UNK         0.0786 
    104 H104       27.7017   -1.9137   -1.9487 H         1 UNK         0.2977 
    105 H105       25.2121    1.3762   -4.9906 H         1 UNK         0.3127 
    106 H106       24.4896    4.1021   -5.2971 H         1 UNK         0.0770 
    107 H107       22.8435    1.5454   -5.7175 H         1 UNK         0.0814 
    108 H108       22.1767    3.1616   -5.5170 H         1 UNK         0.0814 
    109 H109       23.0478    2.4039   -4.1922 H         1 UNK         0.0814 
    110 H110       24.9498    1.5400   -7.6950 H         1 UNK         0.2983 
    111 H111       23.9575    3.0894   -9.9569 H         1 UNK         0.0947 
    112 H112       24.7305    1.1571  -11.2667 H         1 UNK         0.0806 
    113 H113       23.8747    0.5657   -9.8516 H         1 UNK         0.0806 
    114 H114       25.6372    0.5254   -9.9042 H         1 UNK         0.0806 
    115 H115       26.7437    3.3845   -8.1089 H         1 UNK         0.3000 
    116 H116       28.6724    4.3984   -8.2372 H         1 UNK         0.0850 
    117 H117       29.0461    6.2358   -9.8182 H         1 UNK         0.0810 
    118 H118       27.3722    6.2679   -9.2926 H         1 UNK         0.0810 
    119 H119       27.7871    5.6448  -10.8896 H         1 UNK         0.0810 
    120 H120       28.3530    1.7151   -9.4705 H         1 UNK         0.3040 
    121 H121       30.6974    1.5953  -11.3175 H         1 UNK         0.0766 
    122 H122       28.6814    0.3601  -12.0500 H         1 UNK         0.0812 
    123 H123       28.6197   -0.5178  -10.5246 H         1 UNK         0.0812 
    124 H124       29.9606   -0.7706  -11.6345 H         1 UNK         0.0812 
    125 H125       29.4402    0.4442   -8.2006 H         1 UNK         0.3205 
    126 H126       30.2963   -0.5072   -6.3821 H         1 UNK         0.0754 
    127 H127       32.8640    1.0237   -7.0909 H         1 UNK         0.0769 
    128 H128       32.4212    0.4245   -5.4958 H         1 UNK         0.0769 
    129 H129       31.4787    1.6936   -6.2391 H         1 UNK         0.0769 
    130 H130       33.3950   -1.1357   -6.3042 H         1 UNK         0.2981 
    131 H131       33.1730   -3.8644   -7.3658 H         1 UNK         0.0541 
    132 H132       33.7594   -1.1117   -9.1062 H         1 UNK         0.3459 
    133 H133       34.9929   -1.7492  -10.1618 H         1 UNK         0.3459 
    134 H134       35.3715   -4.2474   -6.2450 H         1 UNK         0.0612 
    135 H135       35.4203   -2.5790   -5.7443 H         1 UNK         0.0612 
    136 H136       34.5179   -1.6917   -3.8290 H         1 UNK         0.0624 
    137 H137       35.0354   -2.9345   -2.7140 H         1 UNK         0.0624 
@<TRIPOS>BOND
     1    1    2 1    
     2    1   72 1    
     3    1   73 1    
     4    1   74 1    
     5    2    3 2    
     6    2    4 am   BACKBONE|DICT|INTERRES
     7    4    5 1    
     8    4   75 1    
     9    5    6 1    
    10    5   35 1    
    11    5   76 1    
    12    6    7 1    
    13    6   77 1    
    14    6   78 1    
    15    7    8 1    
    16    8    9 1    
    17    8   79 1    
    18    8   80 1    
    19    9   10 ar   
    20    9   14 ar   
    21   10   11 ar   
    22   10   81 1    
    23   11   12 ar   
    24   11   71 1    
    25   12   13 ar   
    26   12   82 1    
    27   13   14 ar   
    28   13   15 1    
    29   14   83 1    
    30   15   16 1    
    31   15   84 1    
    32   15   85 1    
    33   16   17 1    
    34   17   18 1    
    35   17   86 1    
    36   17   87 1    
    37   18   19 1    
    38   18   37 1    
    39   18   88 1    
    40   19   20 am   BACKBONE|DICT|INTERRES
    41   19   89 1    
    42   20   21 2    
    43   20   22 1    
    44   22   23 1    
    45   22   24 1    
    46   22   90 1    
    47   23   91 1    
    48   23   92 1    
    49   23   93 1    
    50   24   25 am   BACKBONE|DICT|INTERRES
    51   24   94 1    
    52   25   26 2    
    53   25   27 1    
    54   27   28 1    
    55   27   29 1    
    56   27   95 1    
    57   28   96 1    
    58   28   97 1    
    59   28   98 1    
    60   29   30 am   BACKBONE|DICT|INTERRES
    61   29   99 1    
    62   30   31 2    
    63   30   32 1    
    64   32   33 1    
    65   32   34 1    
    66   32  100 1    
    67   33  101 1    
    68   33  102 1    
    69   33  103 1    
    70   34   35 am   BACKBONE|DICT|INTERRES
    71   34  104 1    
    72   35   36 2    
    73   37   38 2    
    74   37   39 am   BACKBONE|DICT|INTERRES
    75   39   40 1    
    76   39  105 1    
    77   40   41 1    
    78   40   42 1    
    79   40  106 1    
    80   41  107 1    
    81   41  108 1    
    82   41  109 1    
    83   42   43 2    
    84   42   44 am   BACKBONE|DICT|INTERRES
    85   44   45 1    
    86   44  110 1    
    87   45   46 1    
    88   45   47 1    
    89   45  111 1    
    90   46  112 1    
    91   46  113 1    
    92   46  114 1    
    93   47   48 2    
    94   47   49 am   BACKBONE|DICT|INTERRES
    95   49   50 1    
    96   49  115 1    
    97   50   51 1    
    98   50   52 1    
    99   50  116 1    
   100   51  117 1    
   101   51  118 1    
   102   51  119 1    
   103   52   53 2    
   104   52   54 am   BACKBONE|DICT|INTERRES
   105   54   55 1    
   106   54  120 1    
   107   55   56 1    
   108   55   57 1    
   109   55  121 1    
   110   56  122 1    
   111   56  123 1    
   112   56  124 1    
   113   57   58 2    
   114   57   59 am   BACKBONE|DICT|INTERRES
   115   59   60 1    
   116   59  125 1    
   117   60   61 1    
   118   60   62 1    
   119   60  126 1    
   120   61  127 1    
   121   61  128 1    
   122   61  129 1    
   123   62   63 2    
   124   62   64 am   BACKBONE|DICT|INTERRES
   125   64   65 1    
   126   64  130 1    
   127   65   66 1    
   128   65   69 1    
   129   65  131 1    
   130   66   67 am   BACKBONE|DICT|INTERRES
   131   66   68 2    
   132   67  132 1    
   133   67  133 1    
   134   69   70 1    
   135   69  134 1    
   136   69  135 1    
   137   70   71 1    
   138   71  136 1    
   139   71  137 1    
@<TRIPOS>SUBSTRUCTURE
     1 UNK         1 GROUP             0       ****    0 ROOT    
