@<TRIPOS>MOLECULE
3R137
137   139    1
SMALL
USER_CHARGES


@<TRIPOS>ATOM
      1 CA         26.9472   -7.1084   -1.2795 C.3       0 UNK        -0.2020 
      2 C          27.0576   -5.5918   -1.2729 C.2       0 UNK         0.4855 
      3 O          27.0385   -4.9776   -2.3383 O.2       0 UNK        -0.5197 
      4 N          27.1588   -4.9881   -0.0799 N.am      1 UNK        -0.4892 
      5 CA         27.3306   -3.5522    0.2154 C.3       1 UNK         0.0835 
      6 C6         28.6104   -2.9306   -0.3988 C.3       12 UNK        -0.0855 
      7 S7         30.1455   -3.7043    0.2201 S.3       12 UNK        -0.2931 
      8 C8         30.7384   -4.6346   -1.2357 C.3       12 UNK         0.0378 
      9 C9         30.8787   -3.7750   -2.4881 C.ar      12 UNK        -0.0802 
     10 C10        31.5700   -2.5607   -2.4502 C.ar      12 UNK        -0.0944 
     11 C11        31.6675   -1.7479   -3.5833 C.ar      12 UNK        -0.0787 
     12 C12        31.0800   -2.1858   -4.7802 C.ar      12 UNK        -0.0862 
     13 C13        30.4006   -3.4097   -4.8405 C.ar      12 UNK        -0.0733 
     14 C14        30.3042   -4.1966   -3.6893 C.ar      12 UNK        -0.0832 
     15 C15        29.8196   -3.8958   -6.1658 C.3       12 UNK         0.0240 
     16 S16        28.1293   -4.5884   -6.0608 S.3       12 UNK        -0.2522 
     17 C17        27.1343   -3.2046   -5.4077 C.3       12 UNK        -0.0967 
     18 CA         26.6603   -2.2225   -6.5132 C.3       5 UNK         0.0660 
     19 N          25.3731   -1.5924   -6.2064 N.am      5 UNK        -0.4015 
     20 C          24.6522   -0.8794   -7.0888 C.2       4 UNK         0.4946 
     21 O          24.9574   -0.7478   -8.2737 O.2       4 UNK        -0.5353 
     22 CA         23.3975   -0.1567   -6.5669 C.3       4 UNK         0.0277 
     23 CB         22.1632   -1.0632   -6.6965 C.3       4 UNK        -0.1981 
     24 N          23.5234    0.2997   -5.1822 N.am      4 UNK        -0.4209 
     25 C          24.4161    1.2009   -4.7461 C.2       3 UNK         0.4942 
     26 O          25.1877    1.8140   -5.4823 O.2       3 UNK        -0.5208 
     27 CA         24.5065    1.4006   -3.2226 C.3       3 UNK         0.0250 
     28 CB         23.5897    2.5492   -2.7738 C.3       3 UNK        -0.1990 
     29 N          24.1893    0.1867   -2.4579 N.am      3 UNK        -0.4232 
     30 C          24.8716   -0.9637   -2.5474 C.2       2 UNK         0.4993 
     31 O          25.8482   -1.1233   -3.2853 O.2       2 UNK        -0.5286 
     32 CA         24.3182   -2.1570   -1.7572 C.3       2 UNK         0.0209 
     33 CB         23.4497   -3.0398   -2.6689 C.3       2 UNK        -0.1931 
     34 N          25.4145   -2.9613   -1.2260 N.am      2 UNK        -0.4546 
     35 C          26.1035   -2.6749   -0.1174 C.2       1 UNK         0.5154 
     36 O          25.8024   -1.7529    0.6431 O.2       1 UNK        -0.5181 
     37 C          27.7169   -1.1413   -6.7792 C.2       5 UNK         0.5014 
     38 O          28.3663   -1.1682   -7.8244 O.2       5 UNK        -0.5248 
     39 N          27.8362   -0.1895   -5.8424 N.am      6 UNK        -0.4434 
     40 CA         28.7719    0.9304   -5.9206 C.3       6 UNK         0.0363 
     41 CB         28.7251    1.7437   -4.6184 C.3       6 UNK        -0.1936 
     42 C          28.5438    1.8233   -7.1485 C.2       6 UNK         0.5081 
     43 O          29.5109    2.1635   -7.8295 O.2       6 UNK        -0.5248 
     44 N          27.2737    2.1378   -7.4380 N.am      7 UNK        -0.4718 
     45 CA         26.8504    2.8963   -8.6166 C.3       7 UNK         0.0273 
     46 CB         25.3473    3.2004   -8.5170 C.3       7 UNK        -0.1935 
     47 C          27.1711    2.1914   -9.9460 C.2       7 UNK         0.5018 
     48 O          27.5768    2.8632  -10.8951 O.2       7 UNK        -0.5186 
     49 N          26.9912    0.8634   -9.9941 N.am      8 UNK        -0.4240 
     50 CA         27.3031    0.0384  -11.1621 C.3       8 UNK         0.0235 
     51 CB         26.6013   -1.3242  -11.0416 C.3       8 UNK        -0.2000 
     52 C          28.8148   -0.1466  -11.3656 C.2       8 UNK         0.4941 
     53 O          29.2931   -0.0032  -12.4916 O.2       8 UNK        -0.5273 
     54 N          29.5338   -0.4798  -10.2852 N.am      9 UNK        -0.4262 
     55 CA         30.9672   -0.7746  -10.3113 C.3       9 UNK         0.0264 
     56 CB         31.3512   -1.5571   -9.0447 C.3       9 UNK        -0.1955 
     57 C          31.8566    0.4695  -10.4480 C.2       9 UNK         0.5031 
     58 O          32.9386    0.3567  -11.0262 O.2       9 UNK        -0.5390 
     59 N          31.4170    1.6058   -9.8820 N.am      10 UNK        -0.4204 
     60 CA         32.1874    2.8424   -9.6854 C.3       10 UNK         0.0237 
     61 CB         32.5095    3.5250  -11.0322 C.3       10 UNK        -0.1985 
     62 C          33.4306    2.5964   -8.8049 C.2       10 UNK         0.4970 
     63 O          34.5281    3.0521   -9.1332 O.2       10 UNK        -0.4914 
     64 N          33.2283    1.8317   -7.7238 N.am      11 UNK        -0.4285 
     65 CA         34.2589    1.3951   -6.7733 C.3       11 UNK         0.1007 
     66 C          34.9104    2.5550   -5.9650 C.2       11 UNK         0.5703 
     67 N          36.1037    2.3368   -5.4282 N.am      11 UNK        -0.7361 
     68 O          34.3427    3.6337   -5.7981 O.2       11 UNK        -0.4986 
     69 C69        33.7263    0.2521   -5.8645 C.3       12 UNK        -0.0947 
     70 S70        32.2986    0.7443   -4.8381 S.3       12 UNK        -0.2240 
     71 C71        32.4106   -0.4160   -3.4338 C.3       12 UNK         0.0194 
     72 H72        26.9845   -7.5267   -0.2739 H         1 UNK         0.0906 
     73 H73        26.0080   -7.4133   -1.7403 H         1 UNK         0.0906 
     74 H74        27.7651   -7.5392   -1.8565 H         1 UNK         0.0906 
     75 H75        27.1339   -5.5710    0.7458 H         1 UNK         0.3140 
     76 H76        27.4364   -3.4972    1.3004 H         1 UNK         0.1085 
     77 H77        28.5674   -2.9679   -1.4881 H         1 UNK         0.0836 
     78 H78        28.6745   -1.8697   -0.1479 H         1 UNK         0.0836 
     79 H79        30.0583   -5.4685   -1.4134 H         1 UNK         0.0731 
     80 H80        31.7084   -5.0745   -1.0009 H         1 UNK         0.0731 
     81 H81        32.0176   -2.2355   -1.5207 H         1 UNK         0.1312 
     82 H82        31.1525   -1.5846   -5.6742 H         1 UNK         0.1406 
     83 H83        29.7731   -5.1383   -3.7295 H         1 UNK         0.1631 
     84 H84        30.4786   -4.6705   -6.5593 H         1 UNK         0.0717 
     85 H85        29.8288   -3.0979   -6.9053 H         1 UNK         0.0717 
     86 H86        26.2683   -3.6627   -4.9272 H         1 UNK         0.0934 
     87 H87        27.6700   -2.7057   -4.5971 H         1 UNK         0.0934 
     88 H88        26.5192   -2.7836   -7.4400 H         1 UNK         0.0739 
     89 H89        25.1081   -1.5806   -5.2298 H         1 UNK         0.3093 
     90 H90        23.2427    0.7247   -7.1927 H         1 UNK         0.0818 
     91 H91        21.2515   -0.5364   -6.4140 H         1 UNK         0.0819 
     92 H92        22.0340   -1.3992   -7.7265 H         1 UNK         0.0819 
     93 H93        22.2457   -1.9536   -6.0717 H         1 UNK         0.0819 
     94 H94        22.9191   -0.1370   -4.5021 H         1 UNK         0.3041 
     95 H95        25.5381    1.6751   -2.9924 H         1 UNK         0.0784 
     96 H96        23.8226    3.4672   -3.3156 H         1 UNK         0.0793 
     97 H97        22.5378    2.3229   -2.9534 H         1 UNK         0.0793 
     98 H98        23.7118    2.7632   -1.7118 H         1 UNK         0.0793 
     99 H99        23.3932    0.2390   -1.8379 H         1 UNK         0.3024 
    100 H100       23.7064   -1.7927   -0.9285 H         1 UNK         0.1171 
    101 H101       23.0389   -3.8880   -2.1208 H         1 UNK         0.0786 
    102 H102       22.6063   -2.4791   -3.0740 H         1 UNK         0.0786 
    103 H103       24.0183   -3.4334   -3.5127 H         1 UNK         0.0786 
    104 H104       25.7995   -3.6859   -1.8280 H         1 UNK         0.2977 
    105 H105       27.2476   -0.2423   -5.0205 H         1 UNK         0.3127 
    106 H106       29.7664    0.4983   -6.0238 H         1 UNK         0.0770 
    107 H107       27.7389    2.1747   -4.4438 H         1 UNK         0.0814 
    108 H108       29.4414    2.5659   -4.6496 H         1 UNK         0.0814 
    109 H109       28.9817    1.1257   -3.7576 H         1 UNK         0.0814 
    110 H110       26.5422    1.8567   -6.7878 H         1 UNK         0.2983 
    111 H111       27.3931    3.8440   -8.6093 H         1 UNK         0.0947 
    112 H112       25.0095    3.7894   -9.3708 H         1 UNK         0.0806 
    113 H113       25.1170    3.7712   -7.6171 H         1 UNK         0.0806 
    114 H114       24.7532    2.2862   -8.4935 H         1 UNK         0.0806 
    115 H115       26.6242    0.3841   -9.1794 H         1 UNK         0.3000 
    116 H116       26.9086    0.5400  -12.0486 H         1 UNK         0.0850 
    117 H117       26.8233   -1.9570  -11.9019 H         1 UNK         0.0810 
    118 H118       25.5184   -1.2074  -10.9958 H         1 UNK         0.0810 
    119 H119       26.9150   -1.8644  -10.1473 H         1 UNK         0.0810 
    120 H120       29.0539   -0.6198   -9.3955 H         1 UNK         0.3040 
    121 H121       31.1664   -1.4147  -11.1737 H         1 UNK         0.0766 
    122 H122       31.1309   -0.9912   -8.1387 H         1 UNK         0.0812 
    123 H123       32.4168   -1.7907   -9.0338 H         1 UNK         0.0812 
    124 H124       30.8126   -2.5028   -8.9919 H         1 UNK         0.0812 
    125 H125       30.5277    1.5853   -9.3880 H         1 UNK         0.3205 
    126 H126       31.5437    3.5190   -9.1215 H         1 UNK         0.0754 
    127 H127       32.9699    4.5008  -10.8731 H         1 UNK         0.0769 
    128 H128       31.6053    3.6849  -11.6197 H         1 UNK         0.0769 
    129 H129       33.2010    2.9352  -11.6346 H         1 UNK         0.0769 
    130 H130       32.2850    1.5491   -7.5041 H         1 UNK         0.2981 
    131 H131       35.0582    0.9681   -7.3823 H         1 UNK         0.0541 
    132 H132       36.5786    1.4559   -5.5494 H         1 UNK         0.3459 
    133 H133       36.5399    3.0707   -4.8923 H         1 UNK         0.3459 
    134 H134       34.5261   -0.1180   -5.2214 H         1 UNK         0.0612 
    135 H135       33.4242   -0.5978   -6.4782 H         1 UNK         0.0612 
    136 H136       33.4583   -0.6119   -3.2032 H         1 UNK         0.0624 
    137 H137       32.0027    0.1017   -2.5644 H         1 UNK         0.0624 
@<TRIPOS>BOND
     1    1    2 1    
     2    1   72 1    
     3    1   73 1    
     4    1   74 1    
     5    2    3 2    
     6    2    4 am   BACKBONE|DICT|INTERRES
     7    4    5 1    
     8    4   75 1    
     9    5    6 1    
    10    5   35 1    
    11    5   76 1    
    12    6    7 1    
    13    6   77 1    
    14    6   78 1    
    15    7    8 1    
    16    8    9 1    
    17    8   79 1    
    18    8   80 1    
    19    9   10 ar   
    20    9   14 ar   
    21   10   11 ar   
    22   10   81 1    
    23   11   12 ar   
    24   11   71 1    
    25   12   13 ar   
    26   12   82 1    
    27   13   14 ar   
    28   13   15 1    
    29   14   83 1    
    30   15   16 1    
    31   15   84 1    
    32   15   85 1    
    33   16   17 1    
    34   17   18 1    
    35   17   86 1    
    36   17   87 1    
    37   18   19 1    
    38   18   37 1    
    39   18   88 1    
    40   19   20 am   BACKBONE|DICT|INTERRES
    41   19   89 1    
    42   20   21 2    
    43   20   22 1    
    44   22   23 1    
    45   22   24 1    
    46   22   90 1    
    47   23   91 1    
    48   23   92 1    
    49   23   93 1    
    50   24   25 am   BACKBONE|DICT|INTERRES
    51   24   94 1    
    52   25   26 2    
    53   25   27 1    
    54   27   28 1    
    55   27   29 1    
    56   27   95 1    
    57   28   96 1    
    58   28   97 1    
    59   28   98 1    
    60   29   30 am   BACKBONE|DICT|INTERRES
    61   29   99 1    
    62   30   31 2    
    63   30   32 1    
    64   32   33 1    
    65   32   34 1    
    66   32  100 1    
    67   33  101 1    
    68   33  102 1    
    69   33  103 1    
    70   34   35 am   BACKBONE|DICT|INTERRES
    71   34  104 1    
    72   35   36 2    
    73   37   38 2    
    74   37   39 am   BACKBONE|DICT|INTERRES
    75   39   40 1    
    76   39  105 1    
    77   40   41 1    
    78   40   42 1    
    79   40  106 1    
    80   41  107 1    
    81   41  108 1    
    82   41  109 1    
    83   42   43 2    
    84   42   44 am   BACKBONE|DICT|INTERRES
    85   44   45 1    
    86   44  110 1    
    87   45   46 1    
    88   45   47 1    
    89   45  111 1    
    90   46  112 1    
    91   46  113 1    
    92   46  114 1    
    93   47   48 2    
    94   47   49 am   BACKBONE|DICT|INTERRES
    95   49   50 1    
    96   49  115 1    
    97   50   51 1    
    98   50   52 1    
    99   50  116 1    
   100   51  117 1    
   101   51  118 1    
   102   51  119 1    
   103   52   53 2    
   104   52   54 am   BACKBONE|DICT|INTERRES
   105   54   55 1    
   106   54  120 1    
   107   55   56 1    
   108   55   57 1    
   109   55  121 1    
   110   56  122 1    
   111   56  123 1    
   112   56  124 1    
   113   57   58 2    
   114   57   59 am   BACKBONE|DICT|INTERRES
   115   59   60 1    
   116   59  125 1    
   117   60   61 1    
   118   60   62 1    
   119   60  126 1    
   120   61  127 1    
   121   61  128 1    
   122   61  129 1    
   123   62   63 2    
   124   62   64 am   BACKBONE|DICT|INTERRES
   125   64   65 1    
   126   64  130 1    
   127   65   66 1    
   128   65   69 1    
   129   65  131 1    
   130   66   67 am   BACKBONE|DICT|INTERRES
   131   66   68 2    
   132   67  132 1    
   133   67  133 1    
   134   69   70 1    
   135   69  134 1    
   136   69  135 1    
   137   70   71 1    
   138   71  136 1    
   139   71  137 1    
@<TRIPOS>SUBSTRUCTURE
     1 UNK         1 GROUP             0       ****    0 ROOT    
