@<TRIPOS>MOLECULE
3R137
137   139    1
SMALL
USER_CHARGES


@<TRIPOS>ATOM
      1 CA         26.2864   -1.2891    2.4636 C.3       0 UNK        -0.2020 
      2 C          27.0261   -1.0643    1.1536 C.2       0 UNK         0.4855 
      3 O          27.6533   -0.0202    0.9759 O.2       0 UNK        -0.5197 
      4 N          26.9565   -2.0353    0.2338 N.am      1 UNK        -0.4892 
      5 CA         27.6205   -1.9953   -1.0776 C.3       1 UNK         0.0835 
      6 C6         27.7894   -3.4077   -1.6851 C.3       12 UNK        -0.0855 
      7 S7         28.6531   -4.5993   -0.5965 S.3       12 UNK        -0.2931 
      8 C8         30.4220   -4.1524   -0.7761 C.3       12 UNK         0.0378 
      9 C9         30.9420   -4.0750   -2.2123 C.ar      12 UNK        -0.0802 
     10 C10        31.9528   -3.1572   -2.5220 C.ar      12 UNK        -0.0944 
     11 C11        32.3996   -3.0053   -3.8383 C.ar      12 UNK        -0.0787 
     12 C12        31.8246   -3.7723   -4.8536 C.ar      12 UNK        -0.0862 
     13 C13        30.8018   -4.6774   -4.5612 C.ar      12 UNK        -0.0733 
     14 C14        30.4063   -4.8675   -3.2352 C.ar      12 UNK        -0.0832 
     15 C15        30.0250   -5.3366   -5.6910 C.3       12 UNK         0.0240 
     16 S16        28.2851   -4.7641   -5.7524 S.3       12 UNK        -0.2522 
     17 C17        28.4072   -2.9484   -5.5393 C.3       12 UNK        -0.0967 
     18 CA         28.2825   -2.1857   -6.8813 C.3       5 UNK         0.0660 
     19 N          26.9112   -2.2246   -7.4062 N.am      5 UNK        -0.4015 
     20 C          25.8605   -1.5608   -6.9041 C.2       4 UNK         0.4946 
     21 O          25.9594   -0.6905   -6.0351 O.2       4 UNK        -0.5353 
     22 CA         24.4636   -1.9279   -7.4334 C.3       4 UNK         0.0277 
     23 CB         24.3287   -3.4107   -7.8319 C.3       4 UNK        -0.1981 
     24 N          23.5230   -1.6323   -6.3579 N.am      4 UNK        -0.4209 
     25 C          22.4709   -0.8166   -6.4263 C.2       3 UNK         0.4942 
     26 O          21.9902   -0.3962   -7.4793 O.2       3 UNK        -0.5208 
     27 CA         21.8936   -0.3343   -5.0828 C.3       3 UNK         0.0250 
     28 CB         20.9505   -1.3827   -4.4598 C.3       3 UNK        -0.1990 
     29 N          22.9220    0.1298   -4.1317 N.am      3 UNK        -0.4232 
     30 C          23.8426   -0.5817   -3.4596 C.2       2 UNK         0.4993 
     31 O          23.9299   -1.8115   -3.5136 O.2       2 UNK        -0.5286 
     32 CA         24.8426    0.2291   -2.6128 C.3       2 UNK         0.0209 
     33 CB         24.1282    1.2255   -1.6790 C.3       2 UNK        -0.1931 
     34 N          25.6780   -0.6474   -1.7893 N.am      2 UNK        -0.4546 
     35 C          26.9164   -1.0614   -2.0905 C.2       1 UNK         0.5154 
     36 O          27.5138   -0.7394   -3.1183 O.2       1 UNK        -0.5181 
     37 C          28.8415   -0.7456   -6.8304 C.2       5 UNK         0.5014 
     38 O          29.1936   -0.2163   -7.8858 O.2       5 UNK        -0.5248 
     39 N          28.8936   -0.1146   -5.6462 N.am      6 UNK        -0.4434 
     40 CA         29.3601    1.2649   -5.4795 C.3       6 UNK         0.0363 
     41 CB         29.5664    1.5785   -3.9897 C.3       6 UNK        -0.1936 
     42 C          28.4145    2.2934   -6.1197 C.2       6 UNK         0.5081 
     43 O          28.8901    3.3138   -6.6158 O.2       6 UNK        -0.5248 
     44 N          27.1076    1.9921   -6.1607 N.am      7 UNK        -0.4718 
     45 CA         26.1015    2.8065   -6.8520 C.3       7 UNK         0.0273 
     46 CB         24.6999    2.4322   -6.3466 C.3       7 UNK        -0.1935 
     47 C          26.1852    2.6728   -8.3838 C.2       7 UNK         0.5018 
     48 O          25.7498    3.5800   -9.0927 O.2       7 UNK        -0.5186 
     49 N          26.7682    1.5648   -8.8624 N.am      8 UNK        -0.4240 
     50 CA         27.0944    1.3213  -10.2693 C.3       8 UNK         0.0235 
     51 CB         26.9289   -0.1815  -10.5596 C.3       8 UNK        -0.2000 
     52 C          28.5170    1.7954  -10.6324 C.2       8 UNK         0.4941 
     53 O          28.9044    1.6699  -11.7945 O.2       8 UNK        -0.5273 
     54 N          29.2713    2.3059   -9.6441 N.am      9 UNK        -0.4262 
     55 CA         30.6742    2.7326   -9.7053 C.3       9 UNK         0.0264 
     56 CB         30.8403    3.9580  -10.6292 C.3       9 UNK        -0.1955 
     57 C          31.6557    1.5900  -10.0411 C.2       9 UNK         0.5031 
     58 O          32.7156    1.8459  -10.6166 O.2       9 UNK        -0.5390 
     59 N          31.3127    0.3514   -9.6556 N.am      10 UNK        -0.4204 
     60 CA         32.1195   -0.8501   -9.8982 C.3       10 UNK         0.0237 
     61 CB         31.2619   -2.0999   -9.6414 C.3       10 UNK        -0.1985 
     62 C          33.4041   -0.9077   -9.0530 C.2       10 UNK         0.4970 
     63 O          34.3424   -1.6074   -9.4357 O.2       10 UNK        -0.4914 
     64 N          33.4217   -0.1852   -7.9258 N.am      11 UNK        -0.4285 
     65 CA         34.5561   -0.0973   -6.9935 C.3       11 UNK         0.1007 
     66 C          35.7628    0.7366   -7.5170 C.2       11 UNK         0.5703 
     67 N          35.6440    1.4667   -8.6209 N.am      11 UNK        -0.7361 
     68 O          36.8312    0.7144   -6.9106 O.2       11 UNK        -0.4986 
     69 C69        34.1162    0.3888   -5.5846 C.3       12 UNK        -0.0947 
     70 S70        32.6696   -0.5035   -4.9251 S.3       12 UNK        -0.2240 
     71 C71        33.4537   -1.9682   -4.1882 C.3       12 UNK         0.0194 
     72 H72        25.7788   -2.2532    2.4862 H         1 UNK         0.0906 
     73 H73        26.9851   -1.2550    3.2990 H         1 UNK         0.0906 
     74 H74        25.5400   -0.5091    2.6117 H         1 UNK         0.0906 
     75 H75        26.4526   -2.8867    0.4404 H         1 UNK         0.3140 
     76 H76        28.6201   -1.5793   -0.9324 H         1 UNK         0.1085 
     77 H77        26.8119   -3.8318   -1.9232 H         1 UNK         0.0836 
     78 H78        28.3157   -3.3440   -2.6364 H         1 UNK         0.0836 
     79 H79        30.5752   -3.1953   -0.2749 H         1 UNK         0.0731 
     80 H80        31.0208   -4.8828   -0.2308 H         1 UNK         0.0731 
     81 H81        32.3741   -2.5375   -1.7420 H         1 UNK         0.1312 
     82 H82        32.1292   -3.6112   -5.8790 H         1 UNK         0.1406 
     83 H83        29.6093   -5.5661   -3.0205 H         1 UNK         0.1631 
     84 H84        30.0420   -6.4196   -5.5618 H         1 UNK         0.0717 
     85 H85        30.4940   -5.1324   -6.6548 H         1 UNK         0.0717 
     86 H86        27.6075   -2.6501   -4.8610 H         1 UNK         0.0934 
     87 H87        29.3283   -2.6840   -5.0238 H         1 UNK         0.0934 
     88 H88        28.9010   -2.7059   -7.6135 H         1 UNK         0.0739 
     89 H89        26.7464   -2.9043   -8.1339 H         1 UNK         0.3093 
     90 H90        24.2639   -1.2969   -8.3019 H         1 UNK         0.0818 
     91 H91        23.2954   -3.6563   -8.0784 H         1 UNK         0.0819 
     92 H92        24.9264   -3.6455   -8.7130 H         1 UNK         0.0819 
     93 H93        24.6427   -4.0767   -7.0265 H         1 UNK         0.0819 
     94 H94        23.8579   -1.8517   -5.4217 H         1 UNK         0.3041 
     95 H95        21.2895    0.5468   -5.3062 H         1 UNK         0.0784 
     96 H96        20.1293   -1.6151   -5.1390 H         1 UNK         0.0793 
     97 H97        21.4619   -2.3207   -4.2426 H         1 UNK         0.0793 
     98 H98        20.5104   -1.0179   -3.5317 H         1 UNK         0.0793 
     99 H99        22.9532    1.1333   -4.0204 H         1 UNK         0.3024 
    100 H100       25.4756    0.7879   -3.3067 H         1 UNK         0.1171 
    101 H101       23.5945    1.9936   -2.2393 H         1 UNK         0.0786 
    102 H102       24.8420    1.7444   -1.0383 H         1 UNK         0.0786 
    103 H103       23.4046    0.7262   -1.0332 H         1 UNK         0.0786 
    104 H104       25.2555   -1.0130   -0.9489 H         1 UNK         0.2977 
    105 H105       28.4796   -0.5498   -4.8245 H         1 UNK         0.3127 
    106 H106       30.3280    1.3491   -5.9784 H         1 UNK         0.0770 
    107 H107       28.6208    1.6124   -3.4481 H         1 UNK         0.0814 
    108 H108       30.0467    2.5494   -3.8624 H         1 UNK         0.0814 
    109 H109       30.2028    0.8353   -3.5092 H         1 UNK         0.0814 
    110 H110       26.7989    1.0916   -5.8006 H         1 UNK         0.2983 
    111 H111       26.2811    3.8556   -6.6059 H         1 UNK         0.0947 
    112 H112       23.9402    3.0727   -6.7965 H         1 UNK         0.0806 
    113 H113       24.6241    2.5484   -5.2659 H         1 UNK         0.0806 
    114 H114       24.4438    1.4033   -6.5966 H         1 UNK         0.0806 
    115 H115       27.1250    0.8910   -8.1981 H         1 UNK         0.3000 
    116 H116       26.3972    1.8695  -10.9065 H         1 UNK         0.0850 
    117 H117       27.0957   -0.3950  -11.6162 H         1 UNK         0.0810 
    118 H118       27.6380   -0.7853   -9.9929 H         1 UNK         0.0810 
    119 H119       25.9232   -0.5249  -10.3174 H         1 UNK         0.0810 
    120 H120       28.8528    2.3663   -8.7251 H         1 UNK         0.3040 
    121 H121       30.9297    3.0519   -8.6938 H         1 UNK         0.0766 
    122 H122       30.1463    4.7543  -10.3605 H         1 UNK         0.0812 
    123 H123       30.6707    3.7026  -11.6756 H         1 UNK         0.0812 
    124 H124       31.8474    4.3702  -10.5559 H         1 UNK         0.0812 
    125 H125       30.4441    0.2191   -9.1372 H         1 UNK         0.3205 
    126 H126       32.4149   -0.8478  -10.9496 H         1 UNK         0.0754 
    127 H127       31.7911   -3.0035   -9.9471 H         1 UNK         0.0769 
    128 H128       30.3260   -2.0662  -10.1997 H         1 UNK         0.0769 
    129 H129       31.0223   -2.2088   -8.5837 H         1 UNK         0.0769 
    130 H130       32.6021    0.3470   -7.6789 H         1 UNK         0.2981 
    131 H131       34.9389   -1.1123   -6.8734 H         1 UNK         0.0541 
    132 H132       36.4360    1.9971   -8.9477 H         1 UNK         0.3459 
    133 H133       34.7765    1.4858   -9.1362 H         1 UNK         0.3459 
    134 H134       33.8568    1.4485   -5.6170 H         1 UNK         0.0612 
    135 H135       34.9372    0.2988   -4.8708 H         1 UNK         0.0612 
    136 H136       34.0206   -1.6721   -3.3043 H         1 UNK         0.0624 
    137 H137       34.1679   -2.3982   -4.8917 H         1 UNK         0.0624 
@<TRIPOS>BOND
     1    1    2 1    
     2    1   72 1    
     3    1   73 1    
     4    1   74 1    
     5    2    3 2    
     6    2    4 am   BACKBONE|DICT|INTERRES
     7    4    5 1    
     8    4   75 1    
     9    5    6 1    
    10    5   35 1    
    11    5   76 1    
    12    6    7 1    
    13    6   77 1    
    14    6   78 1    
    15    7    8 1    
    16    8    9 1    
    17    8   79 1    
    18    8   80 1    
    19    9   10 ar   
    20    9   14 ar   
    21   10   11 ar   
    22   10   81 1    
    23   11   12 ar   
    24   11   71 1    
    25   12   13 ar   
    26   12   82 1    
    27   13   14 ar   
    28   13   15 1    
    29   14   83 1    
    30   15   16 1    
    31   15   84 1    
    32   15   85 1    
    33   16   17 1    
    34   17   18 1    
    35   17   86 1    
    36   17   87 1    
    37   18   19 1    
    38   18   37 1    
    39   18   88 1    
    40   19   20 am   BACKBONE|DICT|INTERRES
    41   19   89 1    
    42   20   21 2    
    43   20   22 1    
    44   22   23 1    
    45   22   24 1    
    46   22   90 1    
    47   23   91 1    
    48   23   92 1    
    49   23   93 1    
    50   24   25 am   BACKBONE|DICT|INTERRES
    51   24   94 1    
    52   25   26 2    
    53   25   27 1    
    54   27   28 1    
    55   27   29 1    
    56   27   95 1    
    57   28   96 1    
    58   28   97 1    
    59   28   98 1    
    60   29   30 am   BACKBONE|DICT|INTERRES
    61   29   99 1    
    62   30   31 2    
    63   30   32 1    
    64   32   33 1    
    65   32   34 1    
    66   32  100 1    
    67   33  101 1    
    68   33  102 1    
    69   33  103 1    
    70   34   35 am   BACKBONE|DICT|INTERRES
    71   34  104 1    
    72   35   36 2    
    73   37   38 2    
    74   37   39 am   BACKBONE|DICT|INTERRES
    75   39   40 1    
    76   39  105 1    
    77   40   41 1    
    78   40   42 1    
    79   40  106 1    
    80   41  107 1    
    81   41  108 1    
    82   41  109 1    
    83   42   43 2    
    84   42   44 am   BACKBONE|DICT|INTERRES
    85   44   45 1    
    86   44  110 1    
    87   45   46 1    
    88   45   47 1    
    89   45  111 1    
    90   46  112 1    
    91   46  113 1    
    92   46  114 1    
    93   47   48 2    
    94   47   49 am   BACKBONE|DICT|INTERRES
    95   49   50 1    
    96   49  115 1    
    97   50   51 1    
    98   50   52 1    
    99   50  116 1    
   100   51  117 1    
   101   51  118 1    
   102   51  119 1    
   103   52   53 2    
   104   52   54 am   BACKBONE|DICT|INTERRES
   105   54   55 1    
   106   54  120 1    
   107   55   56 1    
   108   55   57 1    
   109   55  121 1    
   110   56  122 1    
   111   56  123 1    
   112   56  124 1    
   113   57   58 2    
   114   57   59 am   BACKBONE|DICT|INTERRES
   115   59   60 1    
   116   59  125 1    
   117   60   61 1    
   118   60   62 1    
   119   60  126 1    
   120   61  127 1    
   121   61  128 1    
   122   61  129 1    
   123   62   63 2    
   124   62   64 am   BACKBONE|DICT|INTERRES
   125   64   65 1    
   126   64  130 1    
   127   65   66 1    
   128   65   69 1    
   129   65  131 1    
   130   66   67 am   BACKBONE|DICT|INTERRES
   131   66   68 2    
   132   67  132 1    
   133   67  133 1    
   134   69   70 1    
   135   69  134 1    
   136   69  135 1    
   137   70   71 1    
   138   71  136 1    
   139   71  137 1    
@<TRIPOS>SUBSTRUCTURE
     1 UNK         1 GROUP             0       ****    0 ROOT    
