@<TRIPOS>MOLECULE
3R137
137   139    1
SMALL
USER_CHARGES


@<TRIPOS>ATOM
      1 CA         28.1524   -6.6902    0.9817 C.3       0 UNK        -0.2020 
      2 C          27.4032   -5.3770    1.1500 C.2       0 UNK         0.4855 
      3 O          26.2534   -5.3795    1.5901 O.2       0 UNK        -0.5197 
      4 N          28.0466   -4.2542    0.8051 N.am      1 UNK        -0.4892 
      5 CA         27.4795   -2.9003    0.8647 C.3       1 UNK         0.0835 
      6 C6         28.5794   -1.8076    0.7995 C.3       12 UNK        -0.0855 
      7 S7         29.7885   -2.0362   -0.5536 S.3       12 UNK        -0.2931 
      8 C8         29.1563   -0.8568   -1.7839 C.3       12 UNK         0.0378 
      9 C9         29.9038   -0.9650   -3.1037 C.ar      12 UNK        -0.0802 
     10 C10        30.6606    0.1104   -3.5750 C.ar      12 UNK        -0.0944 
     11 C11        31.2946    0.0418   -4.8184 C.ar      12 UNK        -0.0787 
     12 C12        31.1809   -1.1226   -5.5863 C.ar      12 UNK        -0.0862 
     13 C13        30.4467   -2.2152   -5.1149 C.ar      12 UNK        -0.0733 
     14 C14        29.8027   -2.1253   -3.8767 C.ar      12 UNK        -0.0832 
     15 C15        30.3671   -3.5006   -5.9299 C.3       12 UNK         0.0240 
     16 S16        29.3036   -3.3543   -7.4027 S.3       12 UNK        -0.2522 
     17 C17        27.6571   -3.0715   -6.6662 C.3       12 UNK        -0.0967 
     18 CA         26.8572   -1.9473   -7.3691 C.3       5 UNK         0.0660 
     19 N          25.4902   -1.8516   -6.8591 N.am      5 UNK        -0.4015 
     20 C          24.4612   -1.3316   -7.5446 C.2       4 UNK         0.4946 
     21 O          24.5247   -0.9957   -8.7266 O.2       4 UNK        -0.5353 
     22 CA         23.1362   -1.1328   -6.7854 C.3       4 UNK         0.0277 
     23 CB         22.2186   -2.3510   -6.9777 C.3       4 UNK        -0.1981 
     24 N          23.3179   -0.8825   -5.3532 N.am      4 UNK        -0.4209 
     25 C          23.9133    0.2028   -4.8370 C.2       3 UNK         0.4942 
     26 O          24.3191    1.1467   -5.5139 O.2       3 UNK        -0.5208 
     27 CA         24.1444    0.2083   -3.3148 C.3       3 UNK         0.0250 
     28 CB         22.9510    0.8510   -2.5912 C.3       3 UNK        -0.1990 
     29 N          24.4034   -1.1224   -2.7504 N.am      3 UNK        -0.4232 
     30 C          25.4199   -1.9208   -3.1044 C.2       2 UNK         0.4993 
     31 O          26.2596   -1.6157   -3.9549 O.2       2 UNK        -0.5286 
     32 CA         25.4870   -3.3013   -2.4279 C.3       2 UNK         0.0209 
     33 CB         25.8385   -4.4021   -3.4449 C.3       2 UNK        -0.1931 
     34 N          26.4565   -3.3426   -1.3324 N.am      2 UNK        -0.4546 
     35 C          26.3651   -2.6640   -0.1791 C.2       1 UNK         0.5154 
     36 O          25.4378   -1.8993    0.0913 O.2       1 UNK        -0.5181 
     37 C          27.5359   -0.5687   -7.2716 C.2       5 UNK         0.5014 
     38 O          28.0788   -0.1000   -8.2718 O.2       5 UNK        -0.5248 
     39 N          27.4387    0.0794   -6.0994 N.am      6 UNK        -0.4434 
     40 CA         28.0213    1.3969   -5.8123 C.3       6 UNK         0.0363 
     41 CB         27.6840    1.8056   -4.3695 C.3       6 UNK        -0.1936 
     42 C          27.5939    2.5100   -6.7846 C.2       6 UNK         0.5081 
     43 O          28.4045    3.3752   -7.1153 O.2       6 UNK        -0.5248 
     44 N          26.3333    2.4631   -7.2297 N.am      7 UNK        -0.4718 
     45 CA         25.7635    3.3847   -8.2111 C.3       7 UNK         0.0273 
     46 CB         24.2310    3.3331   -8.0914 C.3       7 UNK        -0.1935 
     47 C          26.1916    3.1035   -9.6650 C.2       7 UNK         0.5018 
     48 O          25.9697    3.9693  -10.5133 O.2       7 UNK        -0.5186 
     49 N          26.7441    1.9146   -9.9483 N.am      8 UNK        -0.4240 
     50 CA         26.9872    1.4247  -11.3078 C.3       8 UNK         0.0235 
     51 CB         26.2219    0.1048  -11.5027 C.3       8 UNK        -0.2000 
     52 C          28.4731    1.2175  -11.6325 C.2       8 UNK         0.4941 
     53 O          28.8762    1.5155  -12.7582 O.2       8 UNK        -0.5273 
     54 N          29.2495    0.6783  -10.6858 N.am      9 UNK        -0.4262 
     55 CA         30.6215    0.2154  -10.8971 C.3       9 UNK         0.0264 
     56 CB         30.6439   -1.3114  -10.7033 C.3       9 UNK        -0.1955 
     57 C          31.5977    0.8824   -9.9209 C.2       9 UNK         0.5031 
     58 O          31.1848    1.4184   -8.8903 O.2       9 UNK        -0.5390 
     59 N          32.8922    0.7970  -10.2556 N.am      10 UNK        -0.4204 
     60 CA         34.0059    1.1445   -9.3712 C.3       10 UNK         0.0237 
     61 CB         35.2908    1.2813  -10.2046 C.3       10 UNK        -0.1985 
     62 C          34.1800    0.0762   -8.2787 C.2       10 UNK         0.4970 
     63 O          33.8661   -1.0940   -8.5109 O.2       10 UNK        -0.4914 
     64 N          34.6739    0.4985   -7.1097 N.am      11 UNK        -0.4285 
     65 CA         34.7707   -0.3490   -5.9098 C.3       11 UNK         0.1007 
     66 C          35.9504   -1.3663   -5.9256 C.2       11 UNK         0.5703 
     67 N          36.8790   -1.2979   -6.8726 N.am      11 UNK        -0.7361 
     68 O          36.0204   -2.2396   -5.0642 O.2       11 UNK        -0.4986 
     69 C69        34.7784    0.4890   -4.6027 C.3       12 UNK        -0.0947 
     70 S70        33.4729    1.7552   -4.3669 S.3       12 UNK        -0.2240 
     71 C71        32.0242    1.2607   -5.3638 C.3       12 UNK         0.0194 
     72 H72        27.6151   -7.3430    0.2943 H         1 UNK         0.0906 
     73 H73        29.1581   -6.5393    0.5898 H         1 UNK         0.0906 
     74 H74        28.2357   -7.2001    1.9412 H         1 UNK         0.0906 
     75 H75        28.9941   -4.3028    0.4543 H         1 UNK         0.3140 
     76 H76        26.9922   -2.8031    1.8380 H         1 UNK         0.1085 
     77 H77        29.1430   -1.8218    1.7338 H         1 UNK         0.0836 
     78 H78        28.1407   -0.8087    0.7485 H         1 UNK         0.0836 
     79 H79        28.0978   -1.0400   -1.9651 H         1 UNK         0.0731 
     80 H80        29.2287    0.1535   -1.3782 H         1 UNK         0.0731 
     81 H81        30.7319    1.0179   -2.9911 H         1 UNK         0.1312 
     82 H82        31.6494   -1.1776   -6.5599 H         1 UNK         0.1406 
     83 H83        29.2176   -2.9569   -3.5089 H         1 UNK         0.1631 
     84 H84        30.0091   -4.3275   -5.3144 H         1 UNK         0.0717 
     85 H85        31.3716   -3.7777   -6.2531 H         1 UNK         0.0717 
     86 H86        27.1049   -4.0103   -6.7295 H         1 UNK         0.0934 
     87 H87        27.7598   -2.8606   -5.6036 H         1 UNK         0.0934 
     88 H88        26.8022   -2.2060   -8.4293 H         1 UNK         0.0739 
     89 H89        25.3737   -2.0378   -5.8717 H         1 UNK         0.3093 
     90 H90        22.6422   -0.2590   -7.2162 H         1 UNK         0.0818 
     91 H91        21.2433   -2.1905   -6.5178 H         1 UNK         0.0819 
     92 H92        22.0462   -2.5446   -8.0375 H         1 UNK         0.0819 
     93 H93        22.6498   -3.2559   -6.5476 H         1 UNK         0.0819 
     94 H94        23.0000   -1.6004   -4.7186 H         1 UNK         0.3041 
     95 H95        25.0275    0.8185   -3.1196 H         1 UNK         0.0784 
     96 H96        22.7549    1.8526   -2.9771 H         1 UNK         0.0793 
     97 H97        22.0379    0.2680   -2.7180 H         1 UNK         0.0793 
     98 H98        23.1416    0.9499   -1.5223 H         1 UNK         0.0793 
     99 H99        23.7891   -1.4245   -2.0069 H         1 UNK         0.3024 
    100 H100       24.5021   -3.5316   -2.0155 H         1 UNK         0.1171 
    101 H101       25.1568   -4.3839   -4.2964 H         1 UNK         0.0786 
    102 H102       25.7654   -5.3926   -2.9956 H         1 UNK         0.0786 
    103 H103       26.8507   -4.2875   -3.8338 H         1 UNK         0.0786 
    104 H104       27.2611   -3.9384   -1.4592 H         1 UNK         0.2977 
    105 H105       26.9906   -0.3982   -5.3223 H         1 UNK         0.3127 
    106 H106       29.1010    1.2857   -5.9045 H         1 UNK         0.0770 
    107 H107       26.6363    2.0879   -4.2679 H         1 UNK         0.0814 
    108 H108       28.2814    2.6649   -4.0629 H         1 UNK         0.0814 
    109 H109       27.8808    1.0011   -3.6632 H         1 UNK         0.0814 
    110 H110       25.7065    1.7691   -6.8322 H         1 UNK         0.2983 
    111 H111       26.0917    4.3975   -7.9671 H         1 UNK         0.0947 
    112 H112       23.7575    4.0304   -8.7839 H         1 UNK         0.0806 
    113 H113       23.9026    3.6015   -7.0871 H         1 UNK         0.0806 
    114 H114       23.8450    2.3369   -8.3133 H         1 UNK         0.0806 
    115 H115       26.9646    1.2783   -9.1884 H         1 UNK         0.3000 
    116 H116       26.6008    2.1349  -12.0420 H         1 UNK         0.0850 
    117 H117       26.3701   -0.2916  -12.5081 H         1 UNK         0.0810 
    118 H118       25.1498    0.2453  -11.3635 H         1 UNK         0.0810 
    119 H119       26.5495   -0.6598  -10.7966 H         1 UNK         0.0810 
    120 H120       28.8668    0.4964   -9.7574 H         1 UNK         0.3040 
    121 H121       30.9549    0.4448  -11.9114 H         1 UNK         0.0766 
    122 H122       29.9736   -1.8102  -11.4034 H         1 UNK         0.0812 
    123 H123       30.3373   -1.5882   -9.6935 H         1 UNK         0.0812 
    124 H124       31.6422   -1.7206  -10.8628 H         1 UNK         0.0812 
    125 H125       33.1361    0.3044  -11.1026 H         1 UNK         0.3205 
    126 H126       33.7871    2.1043   -8.8977 H         1 UNK         0.0754 
    127 H127       36.1339    1.5781   -9.5793 H         1 UNK         0.0769 
    128 H128       35.1820    2.0411  -10.9789 H         1 UNK         0.0769 
    129 H129       35.5601    0.3425  -10.6908 H         1 UNK         0.0769 
    130 H130       34.9378    1.4659   -6.9941 H         1 UNK         0.2981 
    131 H131       33.8785   -0.9722   -5.8784 H         1 UNK         0.0541 
    132 H132       36.8282   -0.5903   -7.5872 H         1 UNK         0.3459 
    133 H133       37.6343   -1.9650   -6.8730 H         1 UNK         0.3459 
    134 H134       35.7352    1.0052   -4.5054 H         1 UNK         0.0612 
    135 H135       34.7168   -0.1795   -3.7420 H         1 UNK         0.0612 
    136 H136       32.2870    1.1274   -6.4095 H         1 UNK         0.0624 
    137 H137       31.3264    2.0989   -5.3577 H         1 UNK         0.0624 
@<TRIPOS>BOND
     1    1    2 1    
     2    1   72 1    
     3    1   73 1    
     4    1   74 1    
     5    2    3 2    
     6    2    4 am   BACKBONE|DICT|INTERRES
     7    4    5 1    
     8    4   75 1    
     9    5    6 1    
    10    5   35 1    
    11    5   76 1    
    12    6    7 1    
    13    6   77 1    
    14    6   78 1    
    15    7    8 1    
    16    8    9 1    
    17    8   79 1    
    18    8   80 1    
    19    9   10 ar   
    20    9   14 ar   
    21   10   11 ar   
    22   10   81 1    
    23   11   12 ar   
    24   11   71 1    
    25   12   13 ar   
    26   12   82 1    
    27   13   14 ar   
    28   13   15 1    
    29   14   83 1    
    30   15   16 1    
    31   15   84 1    
    32   15   85 1    
    33   16   17 1    
    34   17   18 1    
    35   17   86 1    
    36   17   87 1    
    37   18   19 1    
    38   18   37 1    
    39   18   88 1    
    40   19   20 am   BACKBONE|DICT|INTERRES
    41   19   89 1    
    42   20   21 2    
    43   20   22 1    
    44   22   23 1    
    45   22   24 1    
    46   22   90 1    
    47   23   91 1    
    48   23   92 1    
    49   23   93 1    
    50   24   25 am   BACKBONE|DICT|INTERRES
    51   24   94 1    
    52   25   26 2    
    53   25   27 1    
    54   27   28 1    
    55   27   29 1    
    56   27   95 1    
    57   28   96 1    
    58   28   97 1    
    59   28   98 1    
    60   29   30 am   BACKBONE|DICT|INTERRES
    61   29   99 1    
    62   30   31 2    
    63   30   32 1    
    64   32   33 1    
    65   32   34 1    
    66   32  100 1    
    67   33  101 1    
    68   33  102 1    
    69   33  103 1    
    70   34   35 am   BACKBONE|DICT|INTERRES
    71   34  104 1    
    72   35   36 2    
    73   37   38 2    
    74   37   39 am   BACKBONE|DICT|INTERRES
    75   39   40 1    
    76   39  105 1    
    77   40   41 1    
    78   40   42 1    
    79   40  106 1    
    80   41  107 1    
    81   41  108 1    
    82   41  109 1    
    83   42   43 2    
    84   42   44 am   BACKBONE|DICT|INTERRES
    85   44   45 1    
    86   44  110 1    
    87   45   46 1    
    88   45   47 1    
    89   45  111 1    
    90   46  112 1    
    91   46  113 1    
    92   46  114 1    
    93   47   48 2    
    94   47   49 am   BACKBONE|DICT|INTERRES
    95   49   50 1    
    96   49  115 1    
    97   50   51 1    
    98   50   52 1    
    99   50  116 1    
   100   51  117 1    
   101   51  118 1    
   102   51  119 1    
   103   52   53 2    
   104   52   54 am   BACKBONE|DICT|INTERRES
   105   54   55 1    
   106   54  120 1    
   107   55   56 1    
   108   55   57 1    
   109   55  121 1    
   110   56  122 1    
   111   56  123 1    
   112   56  124 1    
   113   57   58 2    
   114   57   59 am   BACKBONE|DICT|INTERRES
   115   59   60 1    
   116   59  125 1    
   117   60   61 1    
   118   60   62 1    
   119   60  126 1    
   120   61  127 1    
   121   61  128 1    
   122   61  129 1    
   123   62   63 2    
   124   62   64 am   BACKBONE|DICT|INTERRES
   125   64   65 1    
   126   64  130 1    
   127   65   66 1    
   128   65   69 1    
   129   65  131 1    
   130   66   67 am   BACKBONE|DICT|INTERRES
   131   66   68 2    
   132   67  132 1    
   133   67  133 1    
   134   69   70 1    
   135   69  134 1    
   136   69  135 1    
   137   70   71 1    
   138   71  136 1    
   139   71  137 1    
@<TRIPOS>SUBSTRUCTURE
     1 UNK         1 GROUP             0       ****    0 ROOT    
