@<TRIPOS>MOLECULE
3R137
137   139    1
SMALL
USER_CHARGES


@<TRIPOS>ATOM
      1 CA         22.4628   -5.0501   -2.1014 C.3       0 UNK        -0.2020 
      2 C          23.6329   -4.1224   -2.3921 C.2       0 UNK         0.4855 
      3 O          23.9223   -3.2355   -1.5901 O.2       0 UNK        -0.5197 
      4 N          24.3029   -4.3194   -3.5358 N.am      1 UNK        -0.4892 
      5 CA         25.4716   -3.5386   -3.9687 C.3       1 UNK         0.0835 
      6 C6         26.3022   -4.2880   -5.0356 C.3       12 UNK        -0.0855 
      7 S7         27.0328   -5.8174   -4.3696 S.3       12 UNK        -0.2931 
      8 C8         28.5233   -5.9832   -5.4052 C.3       12 UNK         0.0378 
      9 C9         29.5730   -4.9071   -5.1428 C.ar      12 UNK        -0.0802 
     10 C10        30.0996   -4.1694   -6.2089 C.ar      12 UNK        -0.0944 
     11 C11        31.1283   -3.2459   -5.9970 C.ar      12 UNK        -0.0787 
     12 C12        31.6150   -3.0465   -4.7027 C.ar      12 UNK        -0.0862 
     13 C13        31.0788   -3.7546   -3.6236 C.ar      12 UNK        -0.0733 
     14 C14        30.0642   -4.6894   -3.8505 C.ar      12 UNK        -0.0832 
     15 C15        31.6221   -3.5322   -2.2184 C.3       12 UNK         0.0240 
     16 S16        30.4981   -2.5348   -1.1886 S.3       12 UNK        -0.2522 
     17 C17        30.4166   -0.9623   -2.1102 C.3       12 UNK        -0.0967 
     18 CA         29.0718   -0.7542   -2.8698 C.3       5 UNK         0.0660 
     19 N          27.9899   -0.2955   -2.0010 N.am      5 UNK        -0.4015 
     20 C          27.1873   -1.0526   -1.2483 C.2       4 UNK         0.4946 
     21 O          27.2656   -2.2770   -1.1673 O.2       4 UNK        -0.5353 
     22 CA         26.0983   -0.3275   -0.4383 C.3       4 UNK         0.0277 
     23 CB         26.6974    0.4236    0.7677 C.3       4 UNK        -0.1981 
     24 N          25.2228    0.5368   -1.2405 N.am      4 UNK        -0.4209 
     25 C          25.5118    1.6689   -1.8966 C.2       3 UNK         0.4942 
     26 O          26.6327    2.1807   -1.9284 O.2       3 UNK        -0.5208 
     27 CA         24.3478    2.2973   -2.6885 C.3       3 UNK         0.0250 
     28 CB         24.6492    3.7311   -3.1633 C.3       3 UNK        -0.1990 
     29 N          24.0008    1.4593   -3.8400 N.am      3 UNK        -0.4232 
     30 C          23.3041    0.3179   -3.7613 C.2       2 UNK         0.4993 
     31 O          22.7740   -0.0759   -2.7201 O.2       2 UNK        -0.5286 
     32 CA         23.2074   -0.5662   -5.0175 C.3       2 UNK         0.0209 
     33 CB         23.7665    0.0749   -6.3085 C.3       2 UNK        -0.1931 
     34 N          23.8230   -1.8719   -4.7477 N.am      2 UNK        -0.4546 
     35 C          25.1105   -2.1180   -4.4533 C.2       1 UNK         0.5154 
     36 O          26.0100   -1.2817   -4.5587 O.2       1 UNK        -0.5181 
     37 C          29.1984    0.3035   -3.9780 C.2       5 UNK         0.5014 
     38 O          30.1145    1.1263   -3.9246 O.2       5 UNK        -0.5248 
     39 N          28.2521    0.3125   -4.9260 N.am      6 UNK        -0.4434 
     40 CA         28.2117    1.2821   -6.0267 C.3       6 UNK         0.0363 
     41 CB         27.3964    2.5109   -5.5902 C.3       6 UNK        -0.1936 
     42 C          27.6723    0.7111   -7.3488 C.2       6 UNK         0.5081 
     43 O          27.6061    1.4592   -8.3239 O.2       6 UNK        -0.5248 
     44 N          27.2847   -0.5729   -7.3887 N.am      7 UNK        -0.4718 
     45 CA         26.5724   -1.1943   -8.5166 C.3       7 UNK         0.0273 
     46 CB         26.1788   -2.6320   -8.1506 C.3       7 UNK        -0.1935 
     47 C          27.3005   -1.1707   -9.8727 C.2       7 UNK         0.5018 
     48 O          26.6311   -1.1059  -10.9046 O.2       7 UNK        -0.5186 
     49 N          28.6388   -1.2106   -9.8554 N.am      8 UNK        -0.4240 
     50 CA         29.4787   -1.1254  -11.0549 C.3       8 UNK         0.0235 
     51 CB         30.6700   -2.0906  -10.9140 C.3       8 UNK        -0.2000 
     52 C          29.9651    0.3077  -11.3403 C.2       8 UNK         0.4941 
     53 O          30.7716    0.4822  -12.2552 O.2       8 UNK        -0.5273 
     54 N          29.5224    1.3014  -10.5505 N.am      9 UNK        -0.4262 
     55 CA         29.8654    2.7339  -10.5782 C.3       9 UNK         0.0264 
     56 CB         29.4638    3.3874  -11.9148 C.3       9 UNK        -0.1955 
     57 C          31.3289    3.0565  -10.2201 C.2       9 UNK         0.5031 
     58 O          31.5709    3.9898   -9.4551 O.2       9 UNK        -0.5390 
     59 N          32.2735    2.2706  -10.7469 N.am      10 UNK        -0.4204 
     60 CA         33.7163    2.3558  -10.5055 C.3       10 UNK         0.0237 
     61 CB         34.4453    1.7483  -11.7178 C.3       10 UNK        -0.1985 
     62 C          34.1700    1.6852   -9.1909 C.2       10 UNK         0.4970 
     63 O          35.3765    1.5680   -8.9704 O.2       10 UNK        -0.4914 
     64 N          33.2189    1.2357   -8.3611 N.am      11 UNK        -0.4285 
     65 CA         33.4323    0.5874   -7.0589 C.3       11 UNK         0.1007 
     66 C          34.2689    1.4444   -6.0674 C.2       11 UNK         0.5703 
     67 N          35.1272    0.8160   -5.2750 N.am      11 UNK        -0.7361 
     68 O          34.1151    2.6615   -5.9818 O.2       11 UNK        -0.4986 
     69 C69        32.0847    0.1898   -6.4019 C.3       12 UNK        -0.0947 
     70 S70        31.0322   -0.8698   -7.4477 S.3       12 UNK        -0.2240 
     71 C71        31.7562   -2.5166   -7.1761 C.3       12 UNK         0.0194 
     72 H72        22.3157   -5.7842   -2.8934 H         1 UNK         0.0906 
     73 H73        22.6341   -5.5876   -1.1691 H         1 UNK         0.0906 
     74 H74        21.5439   -4.4735   -1.9980 H         1 UNK         0.0906 
     75 H75        24.0388   -5.0827   -4.1432 H         1 UNK         0.3140 
     76 H76        26.1130   -3.4005   -3.0979 H         1 UNK         0.1085 
     77 H77        25.6896   -4.5434   -5.9015 H         1 UNK         0.0836 
     78 H78        27.1115   -3.6524   -5.3998 H         1 UNK         0.0836 
     79 H79        28.9730   -6.9582   -5.2132 H         1 UNK         0.0731 
     80 H80        28.2218   -5.9875   -6.4540 H         1 UNK         0.0731 
     81 H81        29.7352   -4.3396   -7.2129 H         1 UNK         0.1312 
     82 H82        32.4246   -2.3511   -4.5350 H         1 UNK         0.1406 
     83 H83        29.6614   -5.2543   -3.0204 H         1 UNK         0.1631 
     84 H84        32.6001   -3.0494   -2.2521 H         1 UNK         0.0717 
     85 H85        31.7779   -4.4973   -1.7343 H         1 UNK         0.0717 
     86 H86        30.5869   -0.1420   -1.4107 H         1 UNK         0.0934 
     87 H87        31.2636   -0.9335   -2.7975 H         1 UNK         0.0934 
     88 H88        28.7803   -1.6919   -3.3492 H         1 UNK         0.0739 
     89 H89        27.7892    0.7028   -2.0322 H         1 UNK         0.3093 
     90 H90        25.4432   -1.1050   -0.0408 H         1 UNK         0.0818 
     91 H91        25.9159    0.8572    1.3915 H         1 UNK         0.0819 
     92 H92        27.2755   -0.2544    1.3969 H         1 UNK         0.0819 
     93 H93        27.3665    1.2283    0.4620 H         1 UNK         0.0819 
     94 H94        24.2856    0.1708   -1.3868 H         1 UNK         0.3041 
     95 H95        23.4871    2.3532   -2.0179 H         1 UNK         0.0784 
     96 H96        24.8666    4.3804   -2.3142 H         1 UNK         0.0793 
     97 H97        25.5103    3.7750   -3.8285 H         1 UNK         0.0793 
     98 H98        23.7970    4.1622   -3.6888 H         1 UNK         0.0793 
     99 H99        24.4261    1.6999   -4.7223 H         1 UNK         0.3024 
    100 H100       22.1430   -0.7482   -5.1755 H         1 UNK         0.1171 
    101 H101       23.2368    0.9975   -6.5496 H         1 UNK         0.0786 
    102 H102       23.6381   -0.5946   -7.1587 H         1 UNK         0.0786 
    103 H103       24.8265    0.3127   -6.2356 H         1 UNK         0.0786 
    104 H104       23.1749   -2.6332   -4.6025 H         1 UNK         0.2977 
    105 H105       27.4565   -0.3217   -4.8333 H         1 UNK         0.3127 
    106 H106       29.2265    1.6139   -6.2516 H         1 UNK         0.0770 
    107 H107       26.3561    2.2462   -5.4097 H         1 UNK         0.0814 
    108 H108       27.4094    3.2875   -6.3561 H         1 UNK         0.0814 
    109 H109       27.7968    2.9517   -4.6769 H         1 UNK         0.0814 
    110 H110       27.3819   -1.1315   -6.5539 H         1 UNK         0.2983 
    111 H111       25.6524   -0.6240   -8.6603 H         1 UNK         0.0947 
    112 H112       25.6965   -3.1347   -8.9904 H         1 UNK         0.0806 
    113 H113       25.4651   -2.6407   -7.3290 H         1 UNK         0.0806 
    114 H114       27.0456   -3.2299   -7.8675 H         1 UNK         0.0806 
    115 H115       29.1135   -1.2454   -8.9625 H         1 UNK         0.3000 
    116 H116       28.9045   -1.4427  -11.9279 H         1 UNK         0.0850 
    117 H117       31.1999   -2.1905  -11.8621 H         1 UNK         0.0810 
    118 H118       31.3960   -1.7401  -10.1815 H         1 UNK         0.0810 
    119 H119       30.3455   -3.0890  -10.6207 H         1 UNK         0.0810 
    120 H120       28.8550    1.0605   -9.8226 H         1 UNK         0.3040 
    121 H121       29.2517    3.1899   -9.7994 H         1 UNK         0.0766 
    122 H122       28.4081    3.2256  -12.1322 H         1 UNK         0.0812 
    123 H123       30.0424    2.9984  -12.7531 H         1 UNK         0.0812 
    124 H124       29.6266    4.4655  -11.8835 H         1 UNK         0.0812 
    125 H125       31.9512    1.5359  -11.3764 H         1 UNK         0.3205 
    126 H126       33.9939    3.4095  -10.4355 H         1 UNK         0.0754 
    127 H127       35.5273    1.8492  -11.6213 H         1 UNK         0.0769 
    128 H128       34.1591    2.2482  -12.6434 H         1 UNK         0.0769 
    129 H129       34.2238    0.6859  -11.8286 H         1 UNK         0.0769 
    130 H130       32.2566    1.3853   -8.6188 H         1 UNK         0.2981 
    131 H131       33.9957   -0.3248   -7.2618 H         1 UNK         0.0541 
    132 H132       35.2584   -0.1817   -5.3310 H         1 UNK         0.3459 
    133 H133       35.6666    1.3546   -4.6156 H         1 UNK         0.3459 
    134 H134       31.5144    1.0913   -6.1766 H         1 UNK         0.0612 
    135 H135       32.2466   -0.3047   -5.4446 H         1 UNK         0.0612 
    136 H136       32.8345   -2.4334   -7.0364 H         1 UNK         0.0624 
    137 H137       31.6198   -3.1051   -8.0843 H         1 UNK         0.0624 
@<TRIPOS>BOND
     1    1    2 1    
     2    1   72 1    
     3    1   73 1    
     4    1   74 1    
     5    2    3 2    
     6    2    4 am   BACKBONE|DICT|INTERRES
     7    4    5 1    
     8    4   75 1    
     9    5    6 1    
    10    5   35 1    
    11    5   76 1    
    12    6    7 1    
    13    6   77 1    
    14    6   78 1    
    15    7    8 1    
    16    8    9 1    
    17    8   79 1    
    18    8   80 1    
    19    9   10 ar   
    20    9   14 ar   
    21   10   11 ar   
    22   10   81 1    
    23   11   12 ar   
    24   11   71 1    
    25   12   13 ar   
    26   12   82 1    
    27   13   14 ar   
    28   13   15 1    
    29   14   83 1    
    30   15   16 1    
    31   15   84 1    
    32   15   85 1    
    33   16   17 1    
    34   17   18 1    
    35   17   86 1    
    36   17   87 1    
    37   18   19 1    
    38   18   37 1    
    39   18   88 1    
    40   19   20 am   BACKBONE|DICT|INTERRES
    41   19   89 1    
    42   20   21 2    
    43   20   22 1    
    44   22   23 1    
    45   22   24 1    
    46   22   90 1    
    47   23   91 1    
    48   23   92 1    
    49   23   93 1    
    50   24   25 am   BACKBONE|DICT|INTERRES
    51   24   94 1    
    52   25   26 2    
    53   25   27 1    
    54   27   28 1    
    55   27   29 1    
    56   27   95 1    
    57   28   96 1    
    58   28   97 1    
    59   28   98 1    
    60   29   30 am   BACKBONE|DICT|INTERRES
    61   29   99 1    
    62   30   31 2    
    63   30   32 1    
    64   32   33 1    
    65   32   34 1    
    66   32  100 1    
    67   33  101 1    
    68   33  102 1    
    69   33  103 1    
    70   34   35 am   BACKBONE|DICT|INTERRES
    71   34  104 1    
    72   35   36 2    
    73   37   38 2    
    74   37   39 am   BACKBONE|DICT|INTERRES
    75   39   40 1    
    76   39  105 1    
    77   40   41 1    
    78   40   42 1    
    79   40  106 1    
    80   41  107 1    
    81   41  108 1    
    82   41  109 1    
    83   42   43 2    
    84   42   44 am   BACKBONE|DICT|INTERRES
    85   44   45 1    
    86   44  110 1    
    87   45   46 1    
    88   45   47 1    
    89   45  111 1    
    90   46  112 1    
    91   46  113 1    
    92   46  114 1    
    93   47   48 2    
    94   47   49 am   BACKBONE|DICT|INTERRES
    95   49   50 1    
    96   49  115 1    
    97   50   51 1    
    98   50   52 1    
    99   50  116 1    
   100   51  117 1    
   101   51  118 1    
   102   51  119 1    
   103   52   53 2    
   104   52   54 am   BACKBONE|DICT|INTERRES
   105   54   55 1    
   106   54  120 1    
   107   55   56 1    
   108   55   57 1    
   109   55  121 1    
   110   56  122 1    
   111   56  123 1    
   112   56  124 1    
   113   57   58 2    
   114   57   59 am   BACKBONE|DICT|INTERRES
   115   59   60 1    
   116   59  125 1    
   117   60   61 1    
   118   60   62 1    
   119   60  126 1    
   120   61  127 1    
   121   61  128 1    
   122   61  129 1    
   123   62   63 2    
   124   62   64 am   BACKBONE|DICT|INTERRES
   125   64   65 1    
   126   64  130 1    
   127   65   66 1    
   128   65   69 1    
   129   65  131 1    
   130   66   67 am   BACKBONE|DICT|INTERRES
   131   66   68 2    
   132   67  132 1    
   133   67  133 1    
   134   69   70 1    
   135   69  134 1    
   136   69  135 1    
   137   70   71 1    
   138   71  136 1    
   139   71  137 1    
@<TRIPOS>SUBSTRUCTURE
     1 UNK         1 GROUP             0       ****    0 ROOT    
