@<TRIPOS>MOLECULE
3R137
137   139    1
SMALL
USER_CHARGES


@<TRIPOS>ATOM
      1 CA         27.2175    1.3178    1.8476 C.3       0 UNK        -0.2020 
      2 C          26.9160   -0.0526    2.4499 C.2       0 UNK         0.4855 
      3 O          26.7151   -0.1450    3.6591 O.2       0 UNK        -0.5197 
      4 N          26.8814   -1.1447    1.6712 N.am      1 UNK        -0.4892 
      5 CA         27.0349   -1.2087    0.2115 C.3       1 UNK         0.0835 
      6 C6         27.2226   -2.6762   -0.2539 C.3       12 UNK        -0.0855 
      7 S7         27.7535   -2.8231   -1.9929 S.3       12 UNK        -0.2931 
      8 C8         29.5362   -3.1294   -1.8091 C.3       12 UNK         0.0378 
      9 C9         30.2367   -3.0891   -3.1592 C.ar      12 UNK        -0.0802 
     10 C10        31.1036   -2.0380   -3.4770 C.ar      12 UNK        -0.0944 
     11 C11        31.7442   -2.0010   -4.7189 C.ar      12 UNK        -0.0787 
     12 C12        31.5115   -3.0213   -5.6448 C.ar      12 UNK        -0.0862 
     13 C13        30.6479   -4.0757   -5.3405 C.ar      12 UNK        -0.0733 
     14 C14        30.0176   -4.1074   -4.0928 C.ar      12 UNK        -0.0832 
     15 C15        30.4071   -5.1847   -6.3559 C.3       12 UNK         0.0240 
     16 S16        29.5823   -4.5850   -7.8665 S.3       12 UNK        -0.2522 
     17 C17        27.9849   -3.9985   -7.2160 C.3       12 UNK        -0.0967 
     18 CA         27.5212   -2.6592   -7.8421 C.3       5 UNK         0.0660 
     19 N          26.0770   -2.4921   -7.6511 N.am      5 UNK        -0.4015 
     20 C          25.3232   -1.5203   -8.1807 C.2       4 UNK         0.4946 
     21 O          25.7565   -0.6463   -8.9273 O.2       4 UNK        -0.5353 
     22 CA         23.8355   -1.4986   -7.7904 C.3       4 UNK         0.0277 
     23 CB         23.0050   -2.2898   -8.8134 C.3       4 UNK        -0.1981 
     24 N          23.5536   -1.9975   -6.4400 N.am      4 UNK        -0.4209 
     25 C          24.0513   -1.4939   -5.3019 C.2       3 UNK         0.4942 
     26 O          24.8748   -0.5750   -5.2502 O.2       3 UNK        -0.5208 
     27 CA         23.5747   -2.1759   -4.0161 C.3       3 UNK         0.0250 
     28 CB         24.3421   -3.4895   -3.7810 C.3       3 UNK        -0.1990 
     29 N          23.7692   -1.2845   -2.8755 N.am      3 UNK        -0.4232 
     30 C          22.9838   -1.2396   -1.7927 C.2       2 UNK         0.4993 
     31 O          21.9943   -1.9588   -1.6381 O.2       2 UNK        -0.5286 
     32 CA         23.4028   -0.2641   -0.6762 C.3       2 UNK         0.0209 
     33 CB         22.3170   -0.0889    0.4026 C.3       2 UNK        -0.1931 
     34 N          24.6331   -0.7337   -0.0365 N.am      2 UNK        -0.4546 
     35 C          25.8626   -0.5226   -0.5225 C.2       1 UNK         0.5154 
     36 O          26.0855    0.1989   -1.4937 O.2       1 UNK        -0.5181 
     37 C          28.3261   -1.4430   -7.3232 C.2       5 UNK         0.5014 
     38 O          29.2327   -0.9612   -8.0103 O.2       5 UNK        -0.5248 
     39 N          27.9388   -0.9331   -6.1446 N.am      6 UNK        -0.4434 
     40 CA         28.5010    0.2804   -5.5559 C.3       6 UNK         0.0363 
     41 CB         28.1926    0.3231   -4.0550 C.3       6 UNK        -0.1936 
     42 C          27.9760    1.5472   -6.2439 C.2       6 UNK         0.5081 
     43 O          28.7584    2.4697   -6.4658 O.2       6 UNK        -0.5248 
     44 N          26.6806    1.5705   -6.5952 N.am      7 UNK        -0.4718 
     45 CA         26.0334    2.6921   -7.2897 C.3       7 UNK         0.0273 
     46 CB         24.5165    2.4616   -7.3563 C.3       7 UNK        -0.1935 
     47 C          26.6071    2.9463   -8.6960 C.2       7 UNK         0.5018 
     48 O          26.7823    4.1032   -9.0791 O.2       7 UNK        -0.5186 
     49 N          26.9296    1.8641   -9.4179 N.am      8 UNK        -0.4240 
     50 CA         27.6373    1.8824  -10.7012 C.3       8 UNK         0.0235 
     51 CB         27.4369    0.5264  -11.3991 C.3       8 UNK        -0.2000 
     52 C          29.1410    2.1933  -10.5710 C.2       8 UNK         0.4941 
     53 O          29.7856    2.4245  -11.5948 O.2       8 UNK        -0.5273 
     54 N          29.6700    2.1826   -9.3371 N.am      9 UNK        -0.4262 
     55 CA         31.0652    2.4122   -8.9553 C.3       9 UNK         0.0264 
     56 CB         31.4758    3.8751   -9.2274 C.3       9 UNK        -0.1955 
     57 C          32.0256    1.3864   -9.5808 C.2       9 UNK         0.5031 
     58 O          33.0723    1.7662  -10.1111 O.2       9 UNK        -0.5390 
     59 N          31.6736    0.0939   -9.4836 N.am      10 UNK        -0.4204 
     60 CA         32.4602   -1.0257  -10.0230 C.3       10 UNK         0.0237 
     61 CB         31.6596   -2.3255   -9.8649 C.3       10 UNK        -0.1985 
     62 C          33.8686   -1.1763   -9.4103 C.2       10 UNK         0.4970 
     63 O          34.7302   -1.8026  -10.0285 O.2       10 UNK        -0.4914 
     64 N          34.0807   -0.5830   -8.2295 N.am      11 UNK        -0.4285 
     65 CA         35.3854   -0.4259   -7.5715 C.3       11 UNK         0.1007 
     66 C          36.3256    0.6096   -8.2587 C.2       11 UNK         0.5703 
     67 N          35.8572    1.4404   -9.1843 N.am      11 UNK        -0.7361 
     68 O          37.5137    0.6532   -7.9481 O.2       11 UNK        -0.4986 
     69 C69        35.2186   -0.1028   -6.0619 C.3       12 UNK        -0.0947 
     70 S70        34.4074   -1.4546   -5.1485 S.3       12 UNK        -0.2240 
     71 C71        32.6873   -0.8647   -5.0753 C.3       12 UNK         0.0194 
     72 H72        27.4913    2.0229    2.6322 H         1 UNK         0.0906 
     73 H73        26.3405    1.7154    1.3377 H         1 UNK         0.0906 
     74 H74        28.0479    1.2795    1.1442 H         1 UNK         0.0906 
     75 H75        26.6967   -2.0308    2.1204 H         1 UNK         0.3140 
     76 H76        27.9448   -0.6664   -0.0525 H         1 UNK         0.1085 
     77 H77        26.2987   -3.2445   -0.1284 H         1 UNK         0.0836 
     78 H78        27.9617   -3.1757    0.3749 H         1 UNK         0.0836 
     79 H79        29.9623   -2.3862   -1.1332 H         1 UNK         0.0731 
     80 H80        29.6933   -4.1033   -1.3430 H         1 UNK         0.0731 
     81 H81        31.2783   -1.2481   -2.7593 H         1 UNK         0.1312 
     82 H82        32.0094   -2.9966   -6.6038 H         1 UNK         0.1406 
     83 H83        29.3460   -4.9187   -3.8459 H         1 UNK         0.1631 
     84 H84        29.8112   -5.9895   -5.9225 H         1 UNK         0.0717 
     85 H85        31.3653   -5.6275   -6.6314 H         1 UNK         0.0717 
     86 H86        27.2624   -4.7849   -7.4417 H         1 UNK         0.0934 
     87 H87        28.0090   -3.9289   -6.1275 H         1 UNK         0.0934 
     88 H88        27.6842   -2.7110   -8.9210 H         1 UNK         0.0739 
     89 H89        25.6209   -3.1658   -7.0547 H         1 UNK         0.3093 
     90 H90        23.5038   -0.4607   -7.8221 H         1 UNK         0.0818 
     91 H91        23.1788   -1.9206   -9.8254 H         1 UNK         0.0819 
     92 H92        23.2564   -3.3512   -8.8067 H         1 UNK         0.0819 
     93 H93        21.9368   -2.1953   -8.6174 H         1 UNK         0.0819 
     94 H94        22.8930   -2.7595   -6.3771 H         1 UNK         0.3041 
     95 H95        22.5100   -2.3933   -4.1273 H         1 UNK         0.0784 
     96 H96        24.1620   -4.2034   -4.5854 H         1 UNK         0.0793 
     97 H97        25.4178   -3.3211   -3.7288 H         1 UNK         0.0793 
     98 H98        24.0349   -3.9689   -2.8513 H         1 UNK         0.0793 
     99 H99        24.5629   -0.6555   -2.9468 H         1 UNK         0.3024 
    100 H100       23.5742    0.7120   -1.1369 H         1 UNK         0.1171 
    101 H101       22.1012   -1.0251    0.9191 H         1 UNK         0.0786 
    102 H102       22.6180    0.6443    1.1511 H         1 UNK         0.0786 
    103 H103       21.3834    0.2638   -0.0379 H         1 UNK         0.0786 
    104 H104       24.5278   -1.3385    0.7656 H         1 UNK         0.2977 
    105 H105       27.1476   -1.3410   -5.6664 H         1 UNK         0.3127 
    106 H106       29.5864    0.2548   -5.6770 H         1 UNK         0.0770 
    107 H107       28.5848    1.2318   -3.5969 H         1 UNK         0.0814 
    108 H108       27.1192    0.2993   -3.8682 H         1 UNK         0.0814 
    109 H109       28.6434   -0.5196   -3.5351 H         1 UNK         0.0814 
    110 H110       26.0942    0.7829   -6.3398 H         1 UNK         0.2983 
    111 H111       26.2140    3.5892   -6.6933 H         1 UNK         0.0947 
    112 H112       24.2649    1.6518   -8.0395 H         1 UNK         0.0806 
    113 H113       24.0062    3.3555   -7.7173 H         1 UNK         0.0806 
    114 H114       24.1016    2.2222   -6.3768 H         1 UNK         0.0806 
    115 H115       26.6648    0.9457   -9.0636 H         1 UNK         0.3000 
    116 H116       27.1958    2.6610  -11.3266 H         1 UNK         0.0850 
    117 H117       27.9156    0.5128  -12.3792 H         1 UNK         0.0810 
    118 H118       26.3792    0.3115  -11.5523 H         1 UNK         0.0810 
    119 H119       27.8628   -0.2911  -10.8150 H         1 UNK         0.0810 
    120 H120       29.0446    2.0035   -8.5608 H         1 UNK         0.3040 
    121 H121       31.1160    2.2548   -7.8771 H         1 UNK         0.0766 
    122 H122       31.4921    4.1008  -10.2941 H         1 UNK         0.0812 
    123 H123       32.4737    4.0794   -8.8374 H         1 UNK         0.0812 
    124 H124       30.7910    4.5735   -8.7465 H         1 UNK         0.0812 
    125 H125       30.7978   -0.1482   -9.0247 H         1 UNK         0.3205 
    126 H126       32.5976   -0.8403  -11.0902 H         1 UNK         0.0754 
    127 H127       32.1988   -3.1772  -10.2816 H         1 UNK         0.0769 
    128 H128       30.6983   -2.2671  -10.3760 H         1 UNK         0.0769 
    129 H129       31.4647   -2.5421   -8.8157 H         1 UNK         0.0769 
    130 H130       33.3129   -0.0862   -7.8088 H         1 UNK         0.2981 
    131 H131       35.9021   -1.3846   -7.6476 H         1 UNK         0.0541 
    132 H132       34.8805    1.4324   -9.4626 H         1 UNK         0.3459 
    133 H133       36.4894    2.0960   -9.6147 H         1 UNK         0.3459 
    134 H134       34.6638    0.8265   -5.9199 H         1 UNK         0.0612 
    135 H135       36.1926    0.0520   -5.5940 H         1 UNK         0.0612 
    136 H136       32.6166   -0.0527   -4.3501 H         1 UNK         0.0624 
    137 H137       32.3874   -0.4495   -6.0375 H         1 UNK         0.0624 
@<TRIPOS>BOND
     1    1    2 1    
     2    1   72 1    
     3    1   73 1    
     4    1   74 1    
     5    2    3 2    
     6    2    4 am   BACKBONE|DICT|INTERRES
     7    4    5 1    
     8    4   75 1    
     9    5    6 1    
    10    5   35 1    
    11    5   76 1    
    12    6    7 1    
    13    6   77 1    
    14    6   78 1    
    15    7    8 1    
    16    8    9 1    
    17    8   79 1    
    18    8   80 1    
    19    9   10 ar   
    20    9   14 ar   
    21   10   11 ar   
    22   10   81 1    
    23   11   12 ar   
    24   11   71 1    
    25   12   13 ar   
    26   12   82 1    
    27   13   14 ar   
    28   13   15 1    
    29   14   83 1    
    30   15   16 1    
    31   15   84 1    
    32   15   85 1    
    33   16   17 1    
    34   17   18 1    
    35   17   86 1    
    36   17   87 1    
    37   18   19 1    
    38   18   37 1    
    39   18   88 1    
    40   19   20 am   BACKBONE|DICT|INTERRES
    41   19   89 1    
    42   20   21 2    
    43   20   22 1    
    44   22   23 1    
    45   22   24 1    
    46   22   90 1    
    47   23   91 1    
    48   23   92 1    
    49   23   93 1    
    50   24   25 am   BACKBONE|DICT|INTERRES
    51   24   94 1    
    52   25   26 2    
    53   25   27 1    
    54   27   28 1    
    55   27   29 1    
    56   27   95 1    
    57   28   96 1    
    58   28   97 1    
    59   28   98 1    
    60   29   30 am   BACKBONE|DICT|INTERRES
    61   29   99 1    
    62   30   31 2    
    63   30   32 1    
    64   32   33 1    
    65   32   34 1    
    66   32  100 1    
    67   33  101 1    
    68   33  102 1    
    69   33  103 1    
    70   34   35 am   BACKBONE|DICT|INTERRES
    71   34  104 1    
    72   35   36 2    
    73   37   38 2    
    74   37   39 am   BACKBONE|DICT|INTERRES
    75   39   40 1    
    76   39  105 1    
    77   40   41 1    
    78   40   42 1    
    79   40  106 1    
    80   41  107 1    
    81   41  108 1    
    82   41  109 1    
    83   42   43 2    
    84   42   44 am   BACKBONE|DICT|INTERRES
    85   44   45 1    
    86   44  110 1    
    87   45   46 1    
    88   45   47 1    
    89   45  111 1    
    90   46  112 1    
    91   46  113 1    
    92   46  114 1    
    93   47   48 2    
    94   47   49 am   BACKBONE|DICT|INTERRES
    95   49   50 1    
    96   49  115 1    
    97   50   51 1    
    98   50   52 1    
    99   50  116 1    
   100   51  117 1    
   101   51  118 1    
   102   51  119 1    
   103   52   53 2    
   104   52   54 am   BACKBONE|DICT|INTERRES
   105   54   55 1    
   106   54  120 1    
   107   55   56 1    
   108   55   57 1    
   109   55  121 1    
   110   56  122 1    
   111   56  123 1    
   112   56  124 1    
   113   57   58 2    
   114   57   59 am   BACKBONE|DICT|INTERRES
   115   59   60 1    
   116   59  125 1    
   117   60   61 1    
   118   60   62 1    
   119   60  126 1    
   120   61  127 1    
   121   61  128 1    
   122   61  129 1    
   123   62   63 2    
   124   62   64 am   BACKBONE|DICT|INTERRES
   125   64   65 1    
   126   64  130 1    
   127   65   66 1    
   128   65   69 1    
   129   65  131 1    
   130   66   67 am   BACKBONE|DICT|INTERRES
   131   66   68 2    
   132   67  132 1    
   133   67  133 1    
   134   69   70 1    
   135   69  134 1    
   136   69  135 1    
   137   70   71 1    
   138   71  136 1    
   139   71  137 1    
@<TRIPOS>SUBSTRUCTURE
     1 UNK         1 GROUP             0       ****    0 ROOT    
