@<TRIPOS>MOLECULE
3R137
137   139    1
SMALL
USER_CHARGES


@<TRIPOS>ATOM
      1 CA         29.6419   -0.8219    2.0304 C.3       0 UNK        -0.2020 
      2 C          29.0646   -1.3468    0.7246 C.2       0 UNK         0.4855 
      3 O          28.7539   -0.5578   -0.1679 O.2       0 UNK        -0.5197 
      4 N          28.9269   -2.6727    0.6028 N.am      1 UNK        -0.4892 
      5 CA         28.3654   -3.3504   -0.5700 C.3       1 UNK         0.0835 
      6 C6         28.7132   -4.8622   -0.6037 C.3       12 UNK        -0.0855 
      7 S7         30.5044   -5.1829   -0.4171 S.3       12 UNK        -0.2931 
      8 C8         31.0275   -5.5751   -2.1216 C.3       12 UNK         0.0378 
      9 C9         30.7764   -4.4470   -3.1183 C.ar      12 UNK        -0.0802 
     10 C10        31.1129   -3.1230   -2.8138 C.ar      12 UNK        -0.0944 
     11 C11        30.8466   -2.0923   -3.7198 C.ar      12 UNK        -0.0787 
     12 C12        30.2797   -2.3983   -4.9601 C.ar      12 UNK        -0.0862 
     13 C13        29.9730   -3.7217   -5.2925 C.ar      12 UNK        -0.0733 
     14 C14        30.2172   -4.7389   -4.3659 C.ar      12 UNK        -0.0832 
     15 C15        29.3978   -4.0583   -6.6607 C.3       12 UNK         0.0240 
     16 S16        27.6756   -4.6460   -6.5883 S.3       12 UNK        -0.2522 
     17 C17        26.7973   -3.2453   -5.8210 C.3       12 UNK        -0.0967 
     18 CA         26.3844   -2.1495   -6.8402 C.3       5 UNK         0.0660 
     19 N          25.0599   -1.5998   -6.5456 N.am      5 UNK        -0.4015 
     20 C          24.3524   -0.8151   -7.3701 C.2       4 UNK         0.4946 
     21 O          24.7221   -0.4952   -8.4992 O.2       4 UNK        -0.5353 
     22 CA         23.0272   -0.2600   -6.8220 C.3       4 UNK         0.0277 
     23 CB         21.8894   -1.2731   -7.0246 C.3       4 UNK        -0.1981 
     24 N          23.1167    0.1077   -5.4058 N.am      4 UNK        -0.4209 
     25 C          23.8651    1.1183   -4.9404 C.2       3 UNK         0.4942 
     26 O          24.5118    1.8780   -5.6600 O.2       3 UNK        -0.5208 
     27 CA         23.9423    1.2807   -3.4132 C.3       3 UNK         0.0250 
     28 CB         22.7475    2.0979   -2.8958 C.3       3 UNK        -0.1990 
     29 N          24.0303    0.0127   -2.6771 N.am      3 UNK        -0.4232 
     30 C          25.0064   -0.8930   -2.8280 C.2       2 UNK         0.4993 
     31 O          25.8984   -0.8117   -3.6771 O.2       2 UNK        -0.5286 
     32 CA         24.9739   -2.1108   -1.9017 C.3       2 UNK         0.0209 
     33 CB         24.1136   -3.2405   -2.4939 C.3       2 UNK        -0.1931 
     34 N          26.3496   -2.5665   -1.7279 N.am      2 UNK        -0.4546 
     35 C          26.8419   -3.1238   -0.6182 C.2       1 UNK         0.5154 
     36 O          26.1507   -3.4404    0.3537 O.2       1 UNK        -0.5181 
     37 C          27.4327   -1.0245   -6.9262 C.2       5 UNK         0.5014 
     38 O          28.1970   -0.9779   -7.8887 O.2       5 UNK        -0.5248 
     39 N          27.4187   -0.1188   -5.9378 N.am      6 UNK        -0.4434 
     40 CA         28.2803    1.0628   -5.8574 C.3       6 UNK         0.0363 
     41 CB         28.0674    1.7473   -4.4978 C.3       6 UNK        -0.1936 
     42 C          28.0702    2.0673   -7.0050 C.2       6 UNK         0.5081 
     43 O          29.0113    2.7768   -7.3571 O.2       6 UNK        -0.5248 
     44 N          26.8527    2.1200   -7.5615 N.am      7 UNK        -0.4718 
     45 CA         26.5290    2.8974   -8.7570 C.3       7 UNK         0.0273 
     46 CB         25.0149    3.1591   -8.8049 C.3       7 UNK        -0.1935 
     47 C          27.0031    2.2045  -10.0462 C.2       7 UNK         0.5018 
     48 O          27.4990    2.8855  -10.9447 O.2       7 UNK        -0.5186 
     49 N          26.8178    0.8789  -10.1286 N.am      8 UNK        -0.4240 
     50 CA         27.1552    0.0638  -11.2970 C.3       8 UNK         0.0235 
     51 CB         26.4342   -1.2916  -11.2054 C.3       8 UNK        -0.2000 
     52 C          28.6670   -0.1400  -11.4848 C.2       8 UNK         0.4941 
     53 O          29.1671    0.0538  -12.5944 O.2       8 UNK        -0.5273 
     54 N          29.3598   -0.5554  -10.4181 N.am      9 UNK        -0.4262 
     55 CA         30.7966   -0.8306  -10.4199 C.3       9 UNK         0.0264 
     56 CB         31.0908   -1.9333   -9.3892 C.3       9 UNK        -0.1955 
     57 C          31.5978    0.4299  -10.0736 C.2       9 UNK         0.5031 
     58 O          31.0838    1.3288   -9.4056 O.2       9 UNK        -0.5390 
     59 N          32.8816    0.4408  -10.4533 N.am      10 UNK        -0.4204 
     60 CA         33.8569    1.4781  -10.0963 C.3       10 UNK         0.0237 
     61 CB         34.9904    1.4787  -11.1401 C.3       10 UNK        -0.1985 
     62 C          34.3761    1.3090   -8.6509 C.2       10 UNK         0.4970 
     63 O          35.5875    1.2505   -8.4317 O.2       10 UNK        -0.4914 
     64 N          33.4464    1.2021   -7.6953 N.am      11 UNK        -0.4285 
     65 CA         33.7091    1.0749   -6.2581 C.3       11 UNK         0.1007 
     66 C          34.2593    2.3982   -5.6562 C.2       11 UNK         0.5703 
     67 N          35.2434    2.3216   -4.7706 N.am      11 UNK        -0.7361 
     68 O          33.7833    3.4891   -5.9667 O.2       11 UNK        -0.4986 
     69 C69        32.4380    0.5738   -5.5233 C.3       12 UNK        -0.0947 
     70 S70        32.8042   -0.1333   -3.8827 S.3       12 UNK        -0.2240 
     71 C71        31.1483   -0.6507   -3.3379 C.3       12 UNK         0.0194 
     72 H72        28.9264   -0.1596    2.5172 H         1 UNK         0.0906 
     73 H73        29.8842   -1.6278    2.7230 H         1 UNK         0.0906 
     74 H74        30.5529   -0.2563    1.8366 H         1 UNK         0.0906 
     75 H75        29.1908   -3.2784    1.3667 H         1 UNK         0.3140 
     76 H76        28.8004   -2.8873   -1.4566 H         1 UNK         0.1085 
     77 H77        28.3595   -5.3134   -1.5329 H         1 UNK         0.0836 
     78 H78        28.1994   -5.3904    0.2021 H         1 UNK         0.0836 
     79 H79        32.0944   -5.8016   -2.1160 H         1 UNK         0.0731 
     80 H80        30.5207   -6.4891   -2.4355 H         1 UNK         0.0731 
     81 H81        31.5558   -2.8894   -1.8551 H         1 UNK         0.1312 
     82 H82        30.0821   -1.6069   -5.6686 H         1 UNK         0.1406 
     83 H83        29.9697   -5.7602   -4.6230 H         1 UNK         0.1631 
     84 H84        30.0113   -4.8331   -7.1224 H         1 UNK         0.0717 
     85 H85        29.4514   -3.2001   -7.3275 H         1 UNK         0.0717 
     86 H86        25.9073   -3.6845   -5.3698 H         1 UNK         0.0934 
     87 H87        27.3672   -2.8467   -4.9797 H         1 UNK         0.0934 
     88 H88        26.3123   -2.6019   -7.8319 H         1 UNK         0.0739 
     89 H89        24.7098   -1.7504   -5.6117 H         1 UNK         0.3093 
     90 H90        22.7872    0.6413   -7.3908 H         1 UNK         0.0818 
     91 H91        20.9299   -0.8590   -6.7142 H         1 UNK         0.0819 
     92 H92        21.7961   -1.5473   -8.0765 H         1 UNK         0.0819 
     93 H93        22.0567   -2.1925   -6.4621 H         1 UNK         0.0819 
     94 H94        22.6038   -0.4578   -4.7451 H         1 UNK         0.3041 
     95 H95        24.8534    1.8422   -3.1963 H         1 UNK         0.0784 
     96 H96        22.6732    3.0531   -3.4179 H         1 UNK         0.0793 
     97 H97        21.8026    1.5728   -3.0413 H         1 UNK         0.0793 
     98 H98        22.8487    2.3203   -1.8333 H         1 UNK         0.0793 
     99 H99        23.3275   -0.1430   -1.9683 H         1 UNK         0.3024 
    100 H100       24.5649   -1.8021   -0.9365 H         1 UNK         0.1171 
    101 H101       23.0839   -2.9139   -2.6441 H         1 UNK         0.0786 
    102 H102       24.0838   -4.1029   -1.8276 H         1 UNK         0.0786 
    103 H103       24.4948   -3.5788   -3.4570 H         1 UNK         0.0786 
    104 H104       26.9755   -2.2593   -2.4626 H         1 UNK         0.2977 
    105 H105       26.7766   -0.2646   -5.1590 H         1 UNK         0.3127 
    106 H106       29.3139    0.7181   -5.9151 H         1 UNK         0.0770 
    107 H107       27.0592    2.1532   -4.4093 H         1 UNK         0.0814 
    108 H108       28.7657    2.5745   -4.3649 H         1 UNK         0.0814 
    109 H109       28.2191    1.0546   -3.6698 H         1 UNK         0.0814 
    110 H110       26.1044    1.5796   -7.1441 H         1 UNK         0.2983 
    111 H111       27.0354    3.8633   -8.6932 H         1 UNK         0.0947 
    112 H112       24.7498    3.7582   -9.6770 H         1 UNK         0.0806 
    113 H113       24.6800    3.7041   -7.9221 H         1 UNK         0.0806 
    114 H114       24.4440    2.2316   -8.8595 H         1 UNK         0.0806 
    115 H115       26.3566    0.4021   -9.3605 H         1 UNK         0.3000 
    116 H116       26.7812    0.5801  -12.1838 H         1 UNK         0.0850 
    117 H117       26.6676   -1.9192  -12.0666 H         1 UNK         0.0810 
    118 H118       25.3519   -1.1625  -11.1821 H         1 UNK         0.0810 
    119 H119       26.7224   -1.8431  -10.3096 H         1 UNK         0.0810 
    120 H120       28.8854   -0.6397   -9.5190 H         1 UNK         0.3040 
    121 H121       31.0996   -1.1849  -11.4077 H         1 UNK         0.0766 
    122 H122       30.4990   -2.8275   -9.5854 H         1 UNK         0.0812 
    123 H123       30.8721   -1.5990   -8.3741 H         1 UNK         0.0812 
    124 H124       32.1405   -2.2282   -9.4138 H         1 UNK         0.0812 
    125 H125       33.2427   -0.3560  -10.9587 H         1 UNK         0.3205 
    126 H126       33.3657    2.4525  -10.1443 H         1 UNK         0.0754 
    127 H127       35.7092    2.2739  -10.9371 H         1 UNK         0.0769 
    128 H128       34.6035    1.6460  -12.1456 H         1 UNK         0.0769 
    129 H129       35.5385    0.5357  -11.1433 H         1 UNK         0.0769 
    130 H130       32.4760    1.3052   -7.9750 H         1 UNK         0.2981 
    131 H131       34.4795    0.3079   -6.1532 H         1 UNK         0.0541 
    132 H132       35.6217    1.4294   -4.4926 H         1 UNK         0.3459 
    133 H133       35.6048    3.1694   -4.3629 H         1 UNK         0.3459 
    134 H134       31.9578   -0.2091   -6.1118 H         1 UNK         0.0612 
    135 H135       31.7032    1.3747   -5.4208 H         1 UNK         0.0612 
    136 H136       31.0871   -0.5364   -2.2544 H         1 UNK         0.0624 
    137 H137       30.3937    0.0179   -3.7512 H         1 UNK         0.0624 
@<TRIPOS>BOND
     1    1    2 1    
     2    1   72 1    
     3    1   73 1    
     4    1   74 1    
     5    2    3 2    
     6    2    4 am   BACKBONE|DICT|INTERRES
     7    4    5 1    
     8    4   75 1    
     9    5    6 1    
    10    5   35 1    
    11    5   76 1    
    12    6    7 1    
    13    6   77 1    
    14    6   78 1    
    15    7    8 1    
    16    8    9 1    
    17    8   79 1    
    18    8   80 1    
    19    9   10 ar   
    20    9   14 ar   
    21   10   11 ar   
    22   10   81 1    
    23   11   12 ar   
    24   11   71 1    
    25   12   13 ar   
    26   12   82 1    
    27   13   14 ar   
    28   13   15 1    
    29   14   83 1    
    30   15   16 1    
    31   15   84 1    
    32   15   85 1    
    33   16   17 1    
    34   17   18 1    
    35   17   86 1    
    36   17   87 1    
    37   18   19 1    
    38   18   37 1    
    39   18   88 1    
    40   19   20 am   BACKBONE|DICT|INTERRES
    41   19   89 1    
    42   20   21 2    
    43   20   22 1    
    44   22   23 1    
    45   22   24 1    
    46   22   90 1    
    47   23   91 1    
    48   23   92 1    
    49   23   93 1    
    50   24   25 am   BACKBONE|DICT|INTERRES
    51   24   94 1    
    52   25   26 2    
    53   25   27 1    
    54   27   28 1    
    55   27   29 1    
    56   27   95 1    
    57   28   96 1    
    58   28   97 1    
    59   28   98 1    
    60   29   30 am   BACKBONE|DICT|INTERRES
    61   29   99 1    
    62   30   31 2    
    63   30   32 1    
    64   32   33 1    
    65   32   34 1    
    66   32  100 1    
    67   33  101 1    
    68   33  102 1    
    69   33  103 1    
    70   34   35 am   BACKBONE|DICT|INTERRES
    71   34  104 1    
    72   35   36 2    
    73   37   38 2    
    74   37   39 am   BACKBONE|DICT|INTERRES
    75   39   40 1    
    76   39  105 1    
    77   40   41 1    
    78   40   42 1    
    79   40  106 1    
    80   41  107 1    
    81   41  108 1    
    82   41  109 1    
    83   42   43 2    
    84   42   44 am   BACKBONE|DICT|INTERRES
    85   44   45 1    
    86   44  110 1    
    87   45   46 1    
    88   45   47 1    
    89   45  111 1    
    90   46  112 1    
    91   46  113 1    
    92   46  114 1    
    93   47   48 2    
    94   47   49 am   BACKBONE|DICT|INTERRES
    95   49   50 1    
    96   49  115 1    
    97   50   51 1    
    98   50   52 1    
    99   50  116 1    
   100   51  117 1    
   101   51  118 1    
   102   51  119 1    
   103   52   53 2    
   104   52   54 am   BACKBONE|DICT|INTERRES
   105   54   55 1    
   106   54  120 1    
   107   55   56 1    
   108   55   57 1    
   109   55  121 1    
   110   56  122 1    
   111   56  123 1    
   112   56  124 1    
   113   57   58 2    
   114   57   59 am   BACKBONE|DICT|INTERRES
   115   59   60 1    
   116   59  125 1    
   117   60   61 1    
   118   60   62 1    
   119   60  126 1    
   120   61  127 1    
   121   61  128 1    
   122   61  129 1    
   123   62   63 2    
   124   62   64 am   BACKBONE|DICT|INTERRES
   125   64   65 1    
   126   64  130 1    
   127   65   66 1    
   128   65   69 1    
   129   65  131 1    
   130   66   67 am   BACKBONE|DICT|INTERRES
   131   66   68 2    
   132   67  132 1    
   133   67  133 1    
   134   69   70 1    
   135   69  134 1    
   136   69  135 1    
   137   70   71 1    
   138   71  136 1    
   139   71  137 1    
@<TRIPOS>SUBSTRUCTURE
     1 UNK         1 GROUP             0       ****    0 ROOT    
