@<TRIPOS>MOLECULE
3R137
137   139    1
SMALL
USER_CHARGES


@<TRIPOS>ATOM
      1 CA         27.8342   -6.2347    1.0674 C.3       0 UNK        -0.2020 
      2 C          27.5282   -4.8733    0.4621 C.2       0 UNK         0.4855 
      3 O          27.5272   -4.7456   -0.7605 O.2       0 UNK        -0.5197 
      4 N          27.2546   -3.8753    1.3148 N.am      1 UNK        -0.4892 
      5 CA         26.9619   -2.4521    1.0584 C.3       1 UNK         0.0835 
      6 C6         28.2004   -1.6201    0.6003 C.3       12 UNK        -0.0855 
      7 S7         28.5143   -1.5034   -1.2002 S.3       12 UNK        -0.2931 
      8 C8         30.0021   -2.5307   -1.3753 C.3       12 UNK         0.0378 
      9 C9         30.2933   -2.8375   -2.8364 C.ar      12 UNK        -0.0802 
     10 C10        31.3245   -2.1774   -3.5087 C.ar      12 UNK        -0.0944 
     11 C11        31.6221   -2.4886   -4.8400 C.ar      12 UNK        -0.0787 
     12 C12        30.8763   -3.4764   -5.4969 C.ar      12 UNK        -0.0862 
     13 C13        29.8475   -4.1532   -4.8299 C.ar      12 UNK        -0.0733 
     14 C14        29.5555   -3.8183   -3.5043 C.ar      12 UNK        -0.0832 
     15 C15        29.1043   -5.3066   -5.4983 C.3       12 UNK         0.0240 
     16 S16        28.0794   -4.8097   -6.9197 S.3       12 UNK        -0.2522 
     17 C17        26.8151   -3.7420   -6.1464 C.3       12 UNK        -0.0967 
     18 CA         26.5357   -2.4716   -6.9874 C.3       5 UNK         0.0660 
     19 N          25.3423   -1.7520   -6.5376 N.am      5 UNK        -0.4015 
     20 C          24.7148   -0.8080   -7.2573 C.2       4 UNK         0.4946 
     21 O          25.0387   -0.4955   -8.4028 O.2       4 UNK        -0.5353 
     22 CA         23.5550   -0.0524   -6.5828 C.3       4 UNK         0.0277 
     23 CB         22.2301   -0.8027   -6.7913 C.3       4 UNK        -0.1981 
     24 N          23.7674    0.1781   -5.1525 N.am      4 UNK        -0.4209 
     25 C          24.7678    0.9083   -4.6391 C.2       3 UNK         0.4942 
     26 O          25.5682    1.5441   -5.3231 O.2       3 UNK        -0.5208 
     27 CA         24.9435    0.8872   -3.1101 C.3       3 UNK         0.0250 
     28 CB         24.2354    2.0933   -2.4734 C.3       3 UNK        -0.1990 
     29 N          24.4979   -0.3455   -2.4463 N.am      3 UNK        -0.4232 
     30 C          24.8997   -1.5879   -2.7510 C.2       2 UNK         0.4993 
     31 O          25.6388   -1.8562   -3.7002 O.2       2 UNK        -0.5286 
     32 CA         24.4104   -2.7146   -1.8281 C.3       2 UNK         0.0209 
     33 CB         24.1609   -4.0196   -2.6056 C.3       2 UNK        -0.1931 
     34 N          25.4182   -2.9603   -0.8022 N.am      2 UNK        -0.4546 
     35 C          25.6826   -2.1617    0.2371 C.2       1 UNK         0.5154 
     36 O          24.9613   -1.2149    0.5586 O.2       1 UNK        -0.5181 
     37 C          27.7477   -1.5264   -7.0232 C.2       5 UNK         0.5014 
     38 O          28.4609   -1.5023   -8.0262 O.2       5 UNK        -0.5248 
     39 N          27.9279   -0.7323   -5.9578 N.am      6 UNK        -0.4434 
     40 CA         28.9997    0.2584   -5.8588 C.3       6 UNK         0.0363 
     41 CB         29.0245    0.8752   -4.4532 C.3       6 UNK        -0.1936 
     42 C          28.9173    1.3440   -6.9444 C.2       6 UNK         0.5081 
     43 O          29.9444    1.7007   -7.5227 O.2       6 UNK        -0.5248 
     44 N          27.6946    1.8102   -7.2350 N.am      7 UNK        -0.4718 
     45 CA         27.3891    2.7377   -8.3243 C.3       7 UNK         0.0273 
     46 CB         25.9332    3.2146   -8.2031 C.3       7 UNK        -0.1935 
     47 C          27.6506    2.1358   -9.7149 C.2       7 UNK         0.5018 
     48 O          28.2345    2.8177  -10.5570 O.2       7 UNK        -0.5186 
     49 N          27.2373    0.8767   -9.9290 N.am      8 UNK        -0.4240 
     50 CA         27.4601    0.1345  -11.1746 C.3       8 UNK         0.0235 
     51 CB         26.6340   -1.1617  -11.1703 C.3       8 UNK        -0.2000 
     52 C          28.9450   -0.1690  -11.4329 C.2       8 UNK         0.4941 
     53 O          29.4049   -0.0120  -12.5647 O.2       8 UNK        -0.5273 
     54 N          29.6695   -0.5779  -10.3822 N.am      9 UNK        -0.4262 
     55 CA         31.1152   -0.8120  -10.4073 C.3       9 UNK         0.0264 
     56 CB         31.5224   -1.5802   -9.1394 C.3       9 UNK        -0.1955 
     57 C          31.9368    0.4836  -10.5259 C.2       9 UNK         0.5031 
     58 O          33.0576    0.4345  -11.0346 O.2       9 UNK        -0.5390 
     59 N          31.3757    1.5998  -10.0358 N.am      10 UNK        -0.4204 
     60 CA         31.9778    2.9317   -9.9111 C.3       10 UNK         0.0237 
     61 CB         32.2758    3.5425  -11.2969 C.3       10 UNK        -0.1985 
     62 C          33.1946    2.9364   -8.9647 C.2       10 UNK         0.4970 
     63 O          34.1598    3.6646   -9.2043 O.2       10 UNK        -0.4914 
     64 N          33.1266    2.1134   -7.9104 N.am      11 UNK        -0.4285 
     65 CA         34.1868    1.9399   -6.9066 C.3       11 UNK         0.1007 
     66 C          34.2066    3.0239   -5.7892 C.2       11 UNK         0.5703 
     67 N          33.2196    3.9086   -5.7019 N.am      11 UNK        -0.7361 
     68 O          35.1468    3.0752   -4.9995 O.2       11 UNK        -0.4986 
     69 C69        34.2025    0.4940   -6.3423 C.3       12 UNK        -0.0947 
     70 S70        32.6490    0.0122   -5.5200 S.3       12 UNK        -0.2240 
     71 C71        32.7907   -1.8032   -5.5408 C.3       12 UNK         0.0194 
     72 H72        28.8265   -6.5647    0.7610 H         1 UNK         0.0906 
     73 H73        27.8045   -6.2165    2.1566 H         1 UNK         0.0906 
     74 H74        27.1090   -6.9701    0.7202 H         1 UNK         0.0906 
     75 H75        27.2424   -4.1092    2.2986 H         1 UNK         0.3140 
     76 H76        26.7188   -2.0798    2.0556 H         1 UNK         0.1085 
     77 H77        29.0985   -1.9763    1.1071 H         1 UNK         0.0836 
     78 H78        28.0734   -0.5935    0.9483 H         1 UNK         0.0836 
     79 H79        30.8467   -2.0183   -0.9121 H         1 UNK         0.0731 
     80 H80        29.8748   -3.4657   -0.8294 H         1 UNK         0.0731 
     81 H81        31.9074   -1.4267   -2.9926 H         1 UNK         0.1312 
     82 H82        31.1107   -3.7411   -6.5189 H         1 UNK         0.1406 
     83 H83        28.7673   -4.3376   -2.9761 H         1 UNK         0.1631 
     84 H84        29.8360   -6.0393   -5.8411 H         1 UNK         0.0717 
     85 H85        28.4712   -5.8289   -4.7791 H         1 UNK         0.0717 
     86 H86        25.9021   -4.3310   -6.0468 H         1 UNK         0.0934 
     87 H87        27.1141   -3.4801   -5.1303 H         1 UNK         0.0934 
     88 H88        26.3438   -2.7920   -8.0140 H         1 UNK         0.0739 
     89 H89        25.0948   -1.8775   -5.5605 H         1 UNK         0.3093 
     90 H90        23.4749    0.9236   -7.0662 H         1 UNK         0.0818 
     91 H91        21.3862   -0.2359   -6.3975 H         1 UNK         0.0819 
     92 H92        22.0396   -0.9674   -7.8529 H         1 UNK         0.0819 
     93 H93        22.2361   -1.7796   -6.3062 H         1 UNK         0.0819 
     94 H94        23.1532   -0.3042   -4.5130 H         1 UNK         0.3041 
     95 H95        26.0135    0.9789   -2.9132 H         1 UNK         0.0784 
     96 H96        24.5676    3.0270   -2.9299 H         1 UNK         0.0793 
     97 H97        23.1530    2.0371   -2.5958 H         1 UNK         0.0793 
     98 H98        24.4510    2.1630   -1.4069 H         1 UNK         0.0793 
     99 H99        23.9325   -0.2234   -1.6172 H         1 UNK         0.3024 
    100 H100       23.4749   -2.4108   -1.3530 H         1 UNK         0.1171 
    101 H101       23.7682   -4.7991   -1.9526 H         1 UNK         0.0786 
    102 H102       23.4335   -3.8664   -3.4038 H         1 UNK         0.0786 
    103 H103       25.0752   -4.3998   -3.0642 H         1 UNK         0.0786 
    104 H104       26.1169   -3.6749   -1.0027 H         1 UNK         0.2977 
    105 H105       27.2965   -0.8170   -5.1719 H         1 UNK         0.3127 
    106 H106       29.9310   -0.2846   -6.0124 H         1 UNK         0.0770 
    107 H107       28.1064    1.4188   -4.2311 H         1 UNK         0.0814 
    108 H108       29.8537    1.5769   -4.3546 H         1 UNK         0.0814 
    109 H109       29.1591    0.1089   -3.6901 H         1 UNK         0.0814 
    110 H110       26.9132    1.5152   -6.6534 H         1 UNK         0.2983 
    111 H111       28.0428    3.6055   -8.2123 H         1 UNK         0.0947 
    112 H112       25.6876    3.9265   -8.9922 H         1 UNK         0.0806 
    113 H113       25.7582    3.7133   -7.2495 H         1 UNK         0.0806 
    114 H114       25.2292    2.3852   -8.2790 H         1 UNK         0.0806 
    115 H115       26.7219    0.3955   -9.1984 H         1 UNK         0.3000 
    116 H116       27.1047    0.7574  -11.9983 H         1 UNK         0.0850 
    117 H117       26.7844   -1.7250  -12.0922 H         1 UNK         0.0810 
    118 H118       25.5675   -0.9506  -11.0903 H         1 UNK         0.0810 
    119 H119       26.9085   -1.8132  -10.3400 H         1 UNK         0.0810 
    120 H120       29.1933   -0.7608   -9.4980 H         1 UNK         0.3040 
    121 H121       31.3457   -1.4327  -11.2757 H         1 UNK         0.0766 
    122 H122       31.0080   -2.5392   -9.0737 H         1 UNK         0.0812 
    123 H123       31.2865   -1.0151   -8.2365 H         1 UNK         0.0812 
    124 H124       32.5941   -1.7829   -9.1300 H         1 UNK         0.0812 
    125 H125       30.4805    1.4999   -9.5696 H         1 UNK         0.3205 
    126 H126       31.2219    3.5565   -9.4331 H         1 UNK         0.0754 
    127 H127       32.5878    4.5836  -11.2062 H         1 UNK         0.0769 
    128 H128       31.3910    3.5243  -11.9337 H         1 UNK         0.0769 
    129 H129       33.0733    3.0083  -11.8141 H         1 UNK         0.0769 
    130 H130       32.2708    1.5983   -7.7474 H         1 UNK         0.2981 
    131 H131       35.1394    2.0649   -7.4249 H         1 UNK         0.0541 
    132 H132       32.4416    3.8673   -6.3400 H         1 UNK         0.3459 
    133 H133       33.2472    4.6105   -4.9797 H         1 UNK         0.3459 
    134 H134       35.0263    0.3602   -5.6390 H         1 UNK         0.0612 
    135 H135       34.3912   -0.2056   -7.1582 H         1 UNK         0.0612 
    136 H136       33.7173   -2.0928   -5.0435 H         1 UNK         0.0624 
    137 H137       32.8729   -2.1416   -6.5740 H         1 UNK         0.0624 
@<TRIPOS>BOND
     1    1    2 1    
     2    1   72 1    
     3    1   73 1    
     4    1   74 1    
     5    2    3 2    
     6    2    4 am   BACKBONE|DICT|INTERRES
     7    4    5 1    
     8    4   75 1    
     9    5    6 1    
    10    5   35 1    
    11    5   76 1    
    12    6    7 1    
    13    6   77 1    
    14    6   78 1    
    15    7    8 1    
    16    8    9 1    
    17    8   79 1    
    18    8   80 1    
    19    9   10 ar   
    20    9   14 ar   
    21   10   11 ar   
    22   10   81 1    
    23   11   12 ar   
    24   11   71 1    
    25   12   13 ar   
    26   12   82 1    
    27   13   14 ar   
    28   13   15 1    
    29   14   83 1    
    30   15   16 1    
    31   15   84 1    
    32   15   85 1    
    33   16   17 1    
    34   17   18 1    
    35   17   86 1    
    36   17   87 1    
    37   18   19 1    
    38   18   37 1    
    39   18   88 1    
    40   19   20 am   BACKBONE|DICT|INTERRES
    41   19   89 1    
    42   20   21 2    
    43   20   22 1    
    44   22   23 1    
    45   22   24 1    
    46   22   90 1    
    47   23   91 1    
    48   23   92 1    
    49   23   93 1    
    50   24   25 am   BACKBONE|DICT|INTERRES
    51   24   94 1    
    52   25   26 2    
    53   25   27 1    
    54   27   28 1    
    55   27   29 1    
    56   27   95 1    
    57   28   96 1    
    58   28   97 1    
    59   28   98 1    
    60   29   30 am   BACKBONE|DICT|INTERRES
    61   29   99 1    
    62   30   31 2    
    63   30   32 1    
    64   32   33 1    
    65   32   34 1    
    66   32  100 1    
    67   33  101 1    
    68   33  102 1    
    69   33  103 1    
    70   34   35 am   BACKBONE|DICT|INTERRES
    71   34  104 1    
    72   35   36 2    
    73   37   38 2    
    74   37   39 am   BACKBONE|DICT|INTERRES
    75   39   40 1    
    76   39  105 1    
    77   40   41 1    
    78   40   42 1    
    79   40  106 1    
    80   41  107 1    
    81   41  108 1    
    82   41  109 1    
    83   42   43 2    
    84   42   44 am   BACKBONE|DICT|INTERRES
    85   44   45 1    
    86   44  110 1    
    87   45   46 1    
    88   45   47 1    
    89   45  111 1    
    90   46  112 1    
    91   46  113 1    
    92   46  114 1    
    93   47   48 2    
    94   47   49 am   BACKBONE|DICT|INTERRES
    95   49   50 1    
    96   49  115 1    
    97   50   51 1    
    98   50   52 1    
    99   50  116 1    
   100   51  117 1    
   101   51  118 1    
   102   51  119 1    
   103   52   53 2    
   104   52   54 am   BACKBONE|DICT|INTERRES
   105   54   55 1    
   106   54  120 1    
   107   55   56 1    
   108   55   57 1    
   109   55  121 1    
   110   56  122 1    
   111   56  123 1    
   112   56  124 1    
   113   57   58 2    
   114   57   59 am   BACKBONE|DICT|INTERRES
   115   59   60 1    
   116   59  125 1    
   117   60   61 1    
   118   60   62 1    
   119   60  126 1    
   120   61  127 1    
   121   61  128 1    
   122   61  129 1    
   123   62   63 2    
   124   62   64 am   BACKBONE|DICT|INTERRES
   125   64   65 1    
   126   64  130 1    
   127   65   66 1    
   128   65   69 1    
   129   65  131 1    
   130   66   67 am   BACKBONE|DICT|INTERRES
   131   66   68 2    
   132   67  132 1    
   133   67  133 1    
   134   69   70 1    
   135   69  134 1    
   136   69  135 1    
   137   70   71 1    
   138   71  136 1    
   139   71  137 1    
@<TRIPOS>SUBSTRUCTURE
     1 UNK         1 GROUP             0       ****    0 ROOT    
