@<TRIPOS>MOLECULE
3R137
137   139    1
SMALL
USER_CHARGES


@<TRIPOS>ATOM
      1 CA         26.3616   -6.5474   -3.2512 C.3       0 UNK        -0.2020 
      2 C          26.0667   -6.0188   -1.8563 C.2       0 UNK         0.4855 
      3 O          25.0257   -6.3449   -1.2858 O.2       0 UNK        -0.5197 
      4 N          26.9790   -5.2120   -1.2988 N.am      1 UNK        -0.4892 
      5 CA         26.8517   -4.5951    0.0282 C.3       1 UNK         0.0835 
      6 C6         28.2222   -4.1159    0.5758 C.3       12 UNK        -0.0855 
      7 S7         29.0597   -2.8988   -0.5017 S.3       12 UNK        -0.2931 
      8 C8         30.3770   -3.8954   -1.2671 C.3       12 UNK         0.0378 
      9 C9         30.6535   -3.3956   -2.6753 C.ar      12 UNK        -0.0802 
     10 C10        31.4297   -2.2504   -2.8763 C.ar      12 UNK        -0.0944 
     11 C11        31.6494   -1.7482   -4.1627 C.ar      12 UNK        -0.0787 
     12 C12        31.0606   -2.4062   -5.2523 C.ar      12 UNK        -0.0862 
     13 C13        30.2876   -3.5570   -5.0682 C.ar      12 UNK        -0.0733 
     14 C14        30.1060   -4.0585   -3.7765 C.ar      12 UNK        -0.0832 
     15 C15        29.6635   -4.2489   -6.2773 C.3       12 UNK         0.0240 
     16 S16        27.9054   -4.7126   -6.0733 S.3       12 UNK        -0.2522 
     17 C17        27.1189   -3.2190   -5.3765 C.3       12 UNK        -0.0967 
     18 CA         26.7297   -2.1638   -6.4426 C.3       5 UNK         0.0660 
     19 N          25.5556   -1.3885   -6.0341 N.am      5 UNK        -0.4015 
     20 C          24.8475   -0.5918   -6.8496 C.2       4 UNK         0.4946 
     21 O          25.0743   -0.4707   -8.0522 O.2       4 UNK        -0.5353 
     22 CA         23.7203    0.2453   -6.2175 C.3       4 UNK         0.0277 
     23 CB         22.3986   -0.5388   -6.2250 C.3       4 UNK        -0.1981 
     24 N          24.0215    0.6825   -4.8526 N.am      4 UNK        -0.4209 
     25 C          25.0504    1.4735   -4.5155 C.2       3 UNK         0.4942 
     26 O          25.8035    1.9961   -5.3355 O.2       3 UNK        -0.5208 
     27 CA         25.3240    1.6736   -3.0142 C.3       3 UNK         0.0250 
     28 CB         24.7029    2.9930   -2.5293 C.3       3 UNK        -0.1990 
     29 N          24.8646    0.5726   -2.1568 N.am      3 UNK        -0.4232 
     30 C          25.2616   -0.7043   -2.2528 C.2       2 UNK         0.4993 
     31 O          26.0211   -1.1282   -3.1301 O.2       2 UNK        -0.5286 
     32 CA         24.6579   -1.6797   -1.2388 C.3       2 UNK         0.0209 
     33 CB         23.2932   -2.1977   -1.7262 C.3       2 UNK        -0.1931 
     34 N          25.5721   -2.8033   -1.0732 N.am      2 UNK        -0.4546 
     35 C          25.7911   -3.4712    0.0661 C.2       1 UNK         0.5154 
     36 O          25.1944   -3.2376    1.1190 O.2       1 UNK        -0.5181 
     37 C          27.9072   -1.2242   -6.7574 C.2       5 UNK         0.5014 
     38 O          28.5309   -1.3541   -7.8100 O.2       5 UNK        -0.5248 
     39 N          28.1590   -0.2686   -5.8516 N.am      6 UNK        -0.4434 
     40 CA         29.1977    0.7546   -5.9779 C.3       6 UNK         0.0363 
     41 CB         29.2479    1.5766   -4.6809 C.3       6 UNK        -0.1936 
     42 C          29.0047    1.6552   -7.2106 C.2       6 UNK         0.5081 
     43 O          29.9775    1.9406   -7.9100 O.2       6 UNK        -0.5248 
     44 N          27.7476    2.0432   -7.4699 N.am      7 UNK        -0.4718 
     45 CA         27.3261    2.8099   -8.6428 C.3       7 UNK         0.0273 
     46 CB         25.8926    3.3206   -8.4273 C.3       7 UNK        -0.1935 
     47 C          27.4236    2.0201   -9.9599 C.2       7 UNK         0.5018 
     48 O          27.7719    2.6123  -10.9818 O.2       7 UNK        -0.5186 
     49 N          27.1103    0.7153   -9.9262 N.am      8 UNK        -0.4240 
     50 CA         27.2390   -0.1927  -11.0721 C.3       8 UNK         0.0235 
     51 CB         26.4651   -1.4925  -10.7991 C.3       8 UNK        -0.2000 
     52 C          28.7039   -0.5020  -11.4259 C.2       8 UNK         0.4941 
     53 O          29.0114   -0.6891  -12.6046 O.2       8 UNK        -0.5273 
     54 N          29.5685   -0.5521  -10.4049 N.am      9 UNK        -0.4262 
     55 CA         31.0197   -0.6793  -10.5145 C.3       9 UNK         0.0264 
     56 CB         31.5371   -1.4141   -9.2601 C.3       9 UNK        -0.1955 
     57 C          31.6695    0.7033  -10.7453 C.2       9 UNK         0.5031 
     58 O          31.1978    1.4737  -11.5844 O.2       9 UNK        -0.5390 
     59 N          32.7552    0.9942  -10.0214 N.am      10 UNK        -0.4204 
     60 CA         33.4902    2.2563  -10.0667 C.3       10 UNK         0.0237 
     61 CB         34.4853    2.2536  -11.2461 C.3       10 UNK        -0.1985 
     62 C          34.1605    2.4706   -8.7047 C.2       10 UNK         0.4970 
     63 O          35.3873    2.5571   -8.6243 O.2       10 UNK        -0.4914 
     64 N          33.3411    2.4986   -7.6505 N.am      11 UNK        -0.4285 
     65 CA         33.7734    2.5822   -6.2503 C.3       11 UNK         0.1007 
     66 C          32.7149    3.2930   -5.3639 C.2       11 UNK         0.5703 
     67 N          32.8566    3.2522   -4.0455 N.am      11 UNK        -0.7361 
     68 O          31.7838    3.9253   -5.8586 O.2       11 UNK        -0.4986 
     69 C69        34.2944    1.2169   -5.7060 C.3       12 UNK        -0.0947 
     70 S70        33.1709   -0.1954   -5.9881 S.3       12 UNK        -0.2240 
     71 C71        32.5037   -0.4858   -4.3145 C.3       12 UNK         0.0194 
     72 H72        26.1830   -7.6215   -3.2924 H         1 UNK         0.0906 
     73 H73        25.7117   -6.0661   -3.9815 H         1 UNK         0.0906 
     74 H74        27.3960   -6.3698   -3.5429 H         1 UNK         0.0906 
     75 H75        27.8097   -4.9583   -1.8120 H         1 UNK         0.3140 
     76 H76        26.4890   -5.3684    0.7097 H         1 UNK         0.1085 
     77 H77        28.8759   -4.9750    0.7336 H         1 UNK         0.0836 
     78 H78        28.0984   -3.6681    1.5639 H         1 UNK         0.0836 
     79 H79        31.2805   -3.8329   -0.6586 H         1 UNK         0.0731 
     80 H80        30.0941   -4.9488   -1.2922 H         1 UNK         0.0731 
     81 H81        31.8517   -1.7393   -2.0214 H         1 UNK         0.1312 
     82 H82        31.1930   -2.0267   -6.2545 H         1 UNK         0.1406 
     83 H83        29.5135   -4.9506   -3.6312 H         1 UNK         0.1631 
     84 H84        30.2351   -5.1529   -6.4907 H         1 UNK         0.0717 
     85 H85        29.7513   -3.6238   -7.1663 H         1 UNK         0.0717 
     86 H86        26.2172   -3.5758   -4.8762 H         1 UNK         0.0934 
     87 H87        27.7261   -2.7925   -4.5762 H         1 UNK         0.0934 
     88 H88        26.4618   -2.6826   -7.3659 H         1 UNK         0.0739 
     89 H89        25.3619   -1.3704   -5.0387 H         1 UNK         0.3093 
     90 H90        23.5924    1.1396   -6.8310 H         1 UNK         0.0818 
     91 H91        21.5718    0.0725   -5.8626 H         1 UNK         0.0819 
     92 H92        22.1424   -0.8593   -7.2360 H         1 UNK         0.0819 
     93 H93        22.4538   -1.4337   -5.6038 H         1 UNK         0.0819 
     94 H94        23.4447    0.3094   -4.1134 H         1 UNK         0.3041 
     95 H95        26.4070    1.7433   -2.8949 H         1 UNK         0.0784 
     96 H96        25.0482    3.8325   -3.1348 H         1 UNK         0.0793 
     97 H97        23.6139    2.9740   -2.5899 H         1 UNK         0.0793 
     98 H98        24.9795    3.2073   -1.4968 H         1 UNK         0.0793 
     99 H99        24.2203    0.8237   -1.4201 H         1 UNK         0.3024 
    100 H100       24.5377   -1.1591   -0.2856 H         1 UNK         0.1171 
    101 H101       22.5818   -1.3807   -1.8525 H         1 UNK         0.0786 
    102 H102       22.8581   -2.8959   -1.0106 H         1 UNK         0.0786 
    103 H103       23.3766   -2.7129   -2.6842 H         1 UNK         0.0786 
    104 H104       26.1558   -2.9970   -1.8766 H         1 UNK         0.2977 
    105 H105       27.5841   -0.2322   -5.0211 H         1 UNK         0.3127 
    106 H106       30.1526    0.2420   -6.0969 H         1 UNK         0.0770 
    107 H107       28.3226    2.1263   -4.5110 H         1 UNK         0.0814 
    108 H108       30.0511    2.3094   -4.7148 H         1 UNK         0.0814 
    109 H109       29.4268    0.9410   -3.8135 H         1 UNK         0.0814 
    110 H110       27.0250    1.8193   -6.7894 H         1 UNK         0.2983 
    111 H111       27.9884    3.6742   -8.7291 H         1 UNK         0.0947 
    112 H112       25.5609    3.9246   -9.2730 H         1 UNK         0.0806 
    113 H113       25.8236    3.9440   -7.5355 H         1 UNK         0.0806 
    114 H114       25.1856    2.4978   -8.3148 H         1 UNK         0.0806 
    115 H115       26.7618    0.3133   -9.0625 H         1 UNK         0.3000 
    116 H116       26.7878    0.2930  -11.9400 H         1 UNK         0.0850 
    117 H117       26.5494   -2.1822  -11.6400 H         1 UNK         0.0810 
    118 H118       25.4037   -1.2965  -10.6469 H         1 UNK         0.0810 
    119 H119       26.8409   -2.0077   -9.9144 H         1 UNK         0.0810 
    120 H120       29.1980   -0.4570   -9.4640 H         1 UNK         0.3040 
    121 H121       31.2579   -1.2935  -11.3851 H         1 UNK         0.0766 
    122 H122       32.6038   -1.6314   -9.3262 H         1 UNK         0.0812 
    123 H123       31.0295   -2.3705   -9.1320 H         1 UNK         0.0812 
    124 H124       31.3615   -0.8303   -8.3557 H         1 UNK         0.0812 
    125 H125       33.0729    0.3258   -9.3322 H         1 UNK         0.3205 
    126 H126       32.7870    3.0804  -10.2065 H         1 UNK         0.0754 
    127 H127       35.2032    1.4365  -11.1654 H         1 UNK         0.0769 
    128 H128       33.9693    2.1521  -12.2010 H         1 UNK         0.0769 
    129 H129       35.0505    3.1858  -11.2831 H         1 UNK         0.0769 
    130 H130       32.3368    2.4594   -7.7855 H         1 UNK         0.2981 
    131 H131       34.6166    3.2749   -6.2249 H         1 UNK         0.0541 
    132 H132       33.6311    2.7720   -3.6166 H         1 UNK         0.3459 
    133 H133       32.1860    3.7347   -3.4689 H         1 UNK         0.3459 
    134 H134       35.2290    0.9736   -6.2131 H         1 UNK         0.0612 
    135 H135       34.5614    1.2792   -4.6507 H         1 UNK         0.0612 
    136 H136       33.3436   -0.5437   -3.6206 H         1 UNK         0.0624 
    137 H137       31.9106    0.3792   -4.0173 H         1 UNK         0.0624 
@<TRIPOS>BOND
     1    1    2 1    
     2    1   72 1    
     3    1   73 1    
     4    1   74 1    
     5    2    3 2    
     6    2    4 am   BACKBONE|DICT|INTERRES
     7    4    5 1    
     8    4   75 1    
     9    5    6 1    
    10    5   35 1    
    11    5   76 1    
    12    6    7 1    
    13    6   77 1    
    14    6   78 1    
    15    7    8 1    
    16    8    9 1    
    17    8   79 1    
    18    8   80 1    
    19    9   10 ar   
    20    9   14 ar   
    21   10   11 ar   
    22   10   81 1    
    23   11   12 ar   
    24   11   71 1    
    25   12   13 ar   
    26   12   82 1    
    27   13   14 ar   
    28   13   15 1    
    29   14   83 1    
    30   15   16 1    
    31   15   84 1    
    32   15   85 1    
    33   16   17 1    
    34   17   18 1    
    35   17   86 1    
    36   17   87 1    
    37   18   19 1    
    38   18   37 1    
    39   18   88 1    
    40   19   20 am   BACKBONE|DICT|INTERRES
    41   19   89 1    
    42   20   21 2    
    43   20   22 1    
    44   22   23 1    
    45   22   24 1    
    46   22   90 1    
    47   23   91 1    
    48   23   92 1    
    49   23   93 1    
    50   24   25 am   BACKBONE|DICT|INTERRES
    51   24   94 1    
    52   25   26 2    
    53   25   27 1    
    54   27   28 1    
    55   27   29 1    
    56   27   95 1    
    57   28   96 1    
    58   28   97 1    
    59   28   98 1    
    60   29   30 am   BACKBONE|DICT|INTERRES
    61   29   99 1    
    62   30   31 2    
    63   30   32 1    
    64   32   33 1    
    65   32   34 1    
    66   32  100 1    
    67   33  101 1    
    68   33  102 1    
    69   33  103 1    
    70   34   35 am   BACKBONE|DICT|INTERRES
    71   34  104 1    
    72   35   36 2    
    73   37   38 2    
    74   37   39 am   BACKBONE|DICT|INTERRES
    75   39   40 1    
    76   39  105 1    
    77   40   41 1    
    78   40   42 1    
    79   40  106 1    
    80   41  107 1    
    81   41  108 1    
    82   41  109 1    
    83   42   43 2    
    84   42   44 am   BACKBONE|DICT|INTERRES
    85   44   45 1    
    86   44  110 1    
    87   45   46 1    
    88   45   47 1    
    89   45  111 1    
    90   46  112 1    
    91   46  113 1    
    92   46  114 1    
    93   47   48 2    
    94   47   49 am   BACKBONE|DICT|INTERRES
    95   49   50 1    
    96   49  115 1    
    97   50   51 1    
    98   50   52 1    
    99   50  116 1    
   100   51  117 1    
   101   51  118 1    
   102   51  119 1    
   103   52   53 2    
   104   52   54 am   BACKBONE|DICT|INTERRES
   105   54   55 1    
   106   54  120 1    
   107   55   56 1    
   108   55   57 1    
   109   55  121 1    
   110   56  122 1    
   111   56  123 1    
   112   56  124 1    
   113   57   58 2    
   114   57   59 am   BACKBONE|DICT|INTERRES
   115   59   60 1    
   116   59  125 1    
   117   60   61 1    
   118   60   62 1    
   119   60  126 1    
   120   61  127 1    
   121   61  128 1    
   122   61  129 1    
   123   62   63 2    
   124   62   64 am   BACKBONE|DICT|INTERRES
   125   64   65 1    
   126   64  130 1    
   127   65   66 1    
   128   65   69 1    
   129   65  131 1    
   130   66   67 am   BACKBONE|DICT|INTERRES
   131   66   68 2    
   132   67  132 1    
   133   67  133 1    
   134   69   70 1    
   135   69  134 1    
   136   69  135 1    
   137   70   71 1    
   138   71  136 1    
   139   71  137 1    
@<TRIPOS>SUBSTRUCTURE
     1 UNK         1 GROUP             0       ****    0 ROOT    
