@<TRIPOS>MOLECULE
3R137
137   139    1
SMALL
USER_CHARGES


@<TRIPOS>ATOM
      1 CA         26.3577   -6.6227   -3.2118 C.3       0 UNK        -0.2020 
      2 C          26.0001   -6.0829   -1.8363 C.2       0 UNK         0.4855 
      3 O          24.9396   -6.4141   -1.3060 O.2       0 UNK        -0.5197 
      4 N          26.8806   -5.2615   -1.2495 N.am      1 UNK        -0.4892 
      5 CA         26.6932   -4.6377    0.0669 C.3       1 UNK         0.0835 
      6 C6         28.0352   -4.1461    0.6708 C.3       12 UNK        -0.0855 
      7 S7         28.9096   -2.9268   -0.3734 S.3       12 UNK        -0.2931 
      8 C8         30.2652   -3.9148   -1.0823 C.3       12 UNK         0.0378 
      9 C9         30.5845   -3.4207   -2.4834 C.ar      12 UNK        -0.0802 
     10 C10        31.3380   -2.2572   -2.6642 C.ar      12 UNK        -0.0944 
     11 C11        31.5792   -1.7485   -3.9442 C.ar      12 UNK        -0.0787 
     12 C12        31.0461   -2.4267   -5.0487 C.ar      12 UNK        -0.0862 
     13 C13        30.2947   -3.5950   -4.8851 C.ar      12 UNK        -0.0733 
     14 C14        30.0871   -4.0994   -3.5986 C.ar      12 UNK        -0.0832 
     15 C15        29.7111   -4.2963   -6.1086 C.3       12 UNK         0.0240 
     16 S16        27.9489   -4.7640   -5.9561 S.3       12 UNK        -0.2522 
     17 C17        27.1325   -3.2691   -5.2968 C.3       12 UNK        -0.0967 
     18 CA         26.7864   -2.2166   -6.3814 C.3       5 UNK         0.0660 
     19 N          25.5716   -1.4682   -6.0497 N.am      5 UNK        -0.4015 
     20 C          24.9116   -0.6685   -6.9022 C.2       4 UNK         0.4946 
     21 O          25.2218   -0.5225   -8.0840 O.2       4 UNK        -0.5353 
     22 CA         23.7334    0.1438   -6.3345 C.3       4 UNK         0.0277 
     23 CB         22.4306   -0.6672   -6.4161 C.3       4 UNK        -0.1981 
     24 N          23.9518    0.5837   -4.9544 N.am      4 UNK        -0.4209 
     25 C          24.9399    1.4023   -4.5650 C.2       3 UNK         0.4942 
     26 O          25.7182    1.9476   -5.3457 O.2       3 UNK        -0.5208 
     27 CA         25.1314    1.6094   -3.0522 C.3       3 UNK         0.0250 
     28 CB         24.4400    2.9046   -2.5985 C.3       3 UNK        -0.1990 
     29 N          24.6705    0.4912   -2.2186 N.am      3 UNK        -0.4232 
     30 C          25.1214   -0.7693   -2.2909 C.2       2 UNK         0.4993 
     31 O          25.9416   -1.1634   -3.1263 O.2       2 UNK        -0.5286 
     32 CA         24.5031   -1.7661   -1.3068 C.3       2 UNK         0.0209 
     33 CB         23.1784   -2.3238   -1.8567 C.3       2 UNK        -0.1931 
     34 N          25.4399   -2.8640   -1.0959 N.am      2 UNK        -0.4546 
     35 C          25.6203   -3.5248    0.0546 C.2       1 UNK         0.5154 
     36 O          24.9759   -3.2959    1.0800 O.2       1 UNK        -0.5181 
     37 C          27.9595   -1.2497   -6.6157 C.2       5 UNK         0.5014 
     38 O          28.6550   -1.3675   -7.6248 O.2       5 UNK        -0.5248 
     39 N          28.1266   -0.2868   -5.6960 N.am      6 UNK        -0.4434 
     40 CA         29.1530    0.7542   -5.7611 C.3       6 UNK         0.0363 
     41 CB         29.1395    1.5854   -4.4693 C.3       6 UNK        -0.1936 
     42 C          29.0220    1.6514   -7.0003 C.2       6 UNK         0.5081 
     43 O          30.0357    1.9720   -7.6211 O.2       6 UNK        -0.5248 
     44 N          27.7797    2.0035   -7.3567 N.am      7 UNK        -0.4718 
     45 CA         27.4360    2.7339   -8.5756 C.3       7 UNK         0.0273 
     46 CB         25.9631    3.1692   -8.5177 C.3       7 UNK        -0.1935 
     47 C          27.7173    1.9237   -9.8517 C.2       7 UNK         0.5018 
     48 O          28.3033    2.4700  -10.7861 O.2       7 UNK        -0.5186 
     49 N          27.3163    0.6427   -9.8668 N.am      8 UNK        -0.4240 
     50 CA         27.5231   -0.2776  -10.9903 C.3       8 UNK         0.0235 
     51 CB         26.7299   -1.5740  -10.7598 C.3       8 UNK        -0.2000 
     52 C          29.0051   -0.5903  -11.2518 C.2       8 UNK         0.4941 
     53 O          29.4295   -0.5788  -12.4081 O.2       8 UNK        -0.5273 
     54 N          29.7663   -0.8493  -10.1802 N.am      9 UNK        -0.4262 
     55 CA         31.2092   -1.0999  -10.2332 C.3       9 UNK         0.0264 
     56 CB         31.6428   -1.7856   -8.9311 C.3       9 UNK        -0.1955 
     57 C          32.0451    0.1725  -10.4566 C.2       9 UNK         0.5031 
     58 O          33.1978    0.0564  -10.8754 O.2       9 UNK        -0.5390 
     59 N          31.4627    1.3437  -10.1585 N.am      10 UNK        -0.4204 
     60 CA         32.0709    2.6766  -10.1636 C.3       10 UNK         0.0237 
     61 CB         32.4894    3.0986  -11.5886 C.3       10 UNK        -0.1985 
     62 C          33.2071    2.7808   -9.1296 C.2       10 UNK         0.4970 
     63 O          34.3345    3.1364   -9.4796 O.2       10 UNK        -0.4914 
     64 N          32.8824    2.4565   -7.8703 N.am      11 UNK        -0.4285 
     65 CA         33.8075    2.5235   -6.7244 C.3       11 UNK         0.1007 
     66 C          34.2568    3.9639   -6.3367 C.2       11 UNK         0.5703 
     67 N          33.5555    5.0147   -6.7470 N.am      11 UNK        -0.7361 
     68 O          35.2640    4.1285   -5.6522 O.2       11 UNK        -0.4986 
     69 C69        33.2502    1.7891   -5.4769 C.3       12 UNK        -0.0947 
     70 S70        32.9366    0.0142   -5.7407 S.3       12 UNK        -0.2240 
     71 C71        32.3643   -0.4390   -4.0641 C.3       12 UNK         0.0194 
     72 H72        25.7392   -6.1500   -3.9743 H         1 UNK         0.0906 
     73 H73        27.4035   -6.4446   -3.4589 H         1 UNK         0.0906 
     74 H74        26.1841   -7.6977   -3.2514 H         1 UNK         0.0906 
     75 H75        27.7293   -5.0034   -1.7304 H         1 UNK         0.3140 
     76 H76        26.3089   -5.4108    0.7367 H         1 UNK         0.1085 
     77 H77        28.6880   -4.9996    0.8600 H         1 UNK         0.0836 
     78 H78        27.8653   -3.6958    1.6509 H         1 UNK         0.0836 
     79 H79        31.1459   -3.8364   -0.4430 H         1 UNK         0.0731 
     80 H80        29.9955   -4.9715   -1.1091 H         1 UNK         0.0731 
     81 H81        31.7132   -1.7288   -1.7981 H         1 UNK         0.1312 
     82 H82        31.1935   -2.0415   -6.0447 H         1 UNK         0.1406 
     83 H83        29.5082   -5.0027   -3.4691 H         1 UNK         0.1631 
     84 H84        30.2928   -5.1982   -6.3020 H         1 UNK         0.0717 
     85 H85        29.8191   -3.6738   -6.9963 H         1 UNK         0.0717 
     86 H86        26.2118   -3.6260   -4.8326 H         1 UNK         0.0934 
     87 H87        27.7070   -2.8418   -4.4728 H         1 UNK         0.0934 
     88 H88        26.5899   -2.7351   -7.3226 H         1 UNK         0.0739 
     89 H89        25.3093   -1.4635   -5.0708 H         1 UNK         0.3093 
     90 H90        23.6214    1.0364   -6.9536 H         1 UNK         0.0818 
     91 H91        21.5728   -0.0736   -6.0993 H         1 UNK         0.0819 
     92 H92        22.2373   -0.9905   -7.4401 H         1 UNK         0.0819 
     93 H93        22.4693   -1.5622   -5.7937 H         1 UNK         0.0819 
     94 H94        23.3475    0.1937   -4.2463 H         1 UNK         0.3041 
     95 H95        26.2039    1.7180   -2.8791 H         1 UNK         0.0784 
     96 H96        24.7843    3.7571   -3.1862 H         1 UNK         0.0793 
     97 H97        23.3567    2.8466   -2.7128 H         1 UNK         0.0793 
     98 H98        24.6574    3.1269   -1.5536 H         1 UNK         0.0793 
     99 H99        23.9792    0.7169   -1.5171 H         1 UNK         0.3024 
    100 H100       24.3223   -1.2499   -0.3608 H         1 UNK         0.1171 
    101 H101       22.4501   -1.5282   -2.0178 H         1 UNK         0.0786 
    102 H102       22.7307   -3.0341   -1.1612 H         1 UNK         0.0786 
    103 H103       23.3217   -2.8369   -2.8088 H         1 UNK         0.0786 
    104 H104       26.0606   -3.0493   -1.8730 H         1 UNK         0.2977 
    105 H105       27.5000   -0.2638   -4.9028 H         1 UNK         0.3127 
    106 H106       30.1133    0.2474   -5.8335 H         1 UNK         0.0770 
    107 H107       28.2058    2.1346   -4.3499 H         1 UNK         0.0814 
    108 H108       29.9464    2.3188   -4.4717 H         1 UNK         0.0814 
    109 H109       29.2748    0.9556   -3.5899 H         1 UNK         0.0814 
    110 H110       27.0120    1.7628   -6.7339 H         1 UNK         0.2983 
    111 H111       28.0561    3.6324   -8.6106 H         1 UNK         0.0947 
    112 H112       25.6890    3.7403   -9.4057 H         1 UNK         0.0806 
    113 H113       25.7718    3.8029   -7.6515 H         1 UNK         0.0806 
    114 H114       25.2905    2.3129   -8.4583 H         1 UNK         0.0806 
    115 H115       26.8040    0.2768   -9.0695 H         1 UNK         0.3000 
    116 H116       27.1274    0.2043  -11.8869 H         1 UNK         0.0850 
    117 H117       26.8727   -2.2732  -11.5848 H         1 UNK         0.0810 
    118 H118       25.6606   -1.3751  -10.6860 H         1 UNK         0.0810 
    119 H119       27.0390   -2.0795   -9.8442 H         1 UNK         0.0810 
    120 H120       29.3248   -0.9019   -9.2618 H         1 UNK         0.3040 
    121 H121       31.4132   -1.7797  -11.0632 H         1 UNK         0.0766 
    122 H122       32.7112   -2.0058   -8.9350 H         1 UNK         0.0812 
    123 H123       31.1153   -2.7272   -8.7830 H         1 UNK         0.0812 
    124 H124       31.4433   -1.1437   -8.0739 H         1 UNK         0.0812 
    125 H125       30.5288    1.3074   -9.7695 H         1 UNK         0.3205 
    126 H126       31.2912    3.3660   -9.8357 H         1 UNK         0.0754 
    127 H127       32.8389    4.1317  -11.6005 H         1 UNK         0.0769 
    128 H128       31.6505    3.0318  -12.2815 H         1 UNK         0.0769 
    129 H129       33.2972    2.4793  -11.9793 H         1 UNK         0.0769 
    130 H130       31.9225    2.1873   -7.6690 H         1 UNK         0.2981 
    131 H131       34.7175    2.0019   -7.0268 H         1 UNK         0.0541 
    132 H132       32.7250    4.8899   -7.3025 H         1 UNK         0.3459 
    133 H133       33.8596    5.9409   -6.4921 H         1 UNK         0.3459 
    134 H134       32.3214    2.2603   -5.1512 H         1 UNK         0.0612 
    135 H135       33.9477    1.8724   -4.6410 H         1 UNK         0.0612 
    136 H136       33.2382   -0.4821   -3.4124 H         1 UNK         0.0624 
    137 H137       31.7329    0.3623   -3.6796 H         1 UNK         0.0624 
@<TRIPOS>BOND
     1    1    2 1    
     2    1   72 1    
     3    1   73 1    
     4    1   74 1    
     5    2    3 2    
     6    2    4 am   BACKBONE|DICT|INTERRES
     7    4    5 1    
     8    4   75 1    
     9    5    6 1    
    10    5   35 1    
    11    5   76 1    
    12    6    7 1    
    13    6   77 1    
    14    6   78 1    
    15    7    8 1    
    16    8    9 1    
    17    8   79 1    
    18    8   80 1    
    19    9   10 ar   
    20    9   14 ar   
    21   10   11 ar   
    22   10   81 1    
    23   11   12 ar   
    24   11   71 1    
    25   12   13 ar   
    26   12   82 1    
    27   13   14 ar   
    28   13   15 1    
    29   14   83 1    
    30   15   16 1    
    31   15   84 1    
    32   15   85 1    
    33   16   17 1    
    34   17   18 1    
    35   17   86 1    
    36   17   87 1    
    37   18   19 1    
    38   18   37 1    
    39   18   88 1    
    40   19   20 am   BACKBONE|DICT|INTERRES
    41   19   89 1    
    42   20   21 2    
    43   20   22 1    
    44   22   23 1    
    45   22   24 1    
    46   22   90 1    
    47   23   91 1    
    48   23   92 1    
    49   23   93 1    
    50   24   25 am   BACKBONE|DICT|INTERRES
    51   24   94 1    
    52   25   26 2    
    53   25   27 1    
    54   27   28 1    
    55   27   29 1    
    56   27   95 1    
    57   28   96 1    
    58   28   97 1    
    59   28   98 1    
    60   29   30 am   BACKBONE|DICT|INTERRES
    61   29   99 1    
    62   30   31 2    
    63   30   32 1    
    64   32   33 1    
    65   32   34 1    
    66   32  100 1    
    67   33  101 1    
    68   33  102 1    
    69   33  103 1    
    70   34   35 am   BACKBONE|DICT|INTERRES
    71   34  104 1    
    72   35   36 2    
    73   37   38 2    
    74   37   39 am   BACKBONE|DICT|INTERRES
    75   39   40 1    
    76   39  105 1    
    77   40   41 1    
    78   40   42 1    
    79   40  106 1    
    80   41  107 1    
    81   41  108 1    
    82   41  109 1    
    83   42   43 2    
    84   42   44 am   BACKBONE|DICT|INTERRES
    85   44   45 1    
    86   44  110 1    
    87   45   46 1    
    88   45   47 1    
    89   45  111 1    
    90   46  112 1    
    91   46  113 1    
    92   46  114 1    
    93   47   48 2    
    94   47   49 am   BACKBONE|DICT|INTERRES
    95   49   50 1    
    96   49  115 1    
    97   50   51 1    
    98   50   52 1    
    99   50  116 1    
   100   51  117 1    
   101   51  118 1    
   102   51  119 1    
   103   52   53 2    
   104   52   54 am   BACKBONE|DICT|INTERRES
   105   54   55 1    
   106   54  120 1    
   107   55   56 1    
   108   55   57 1    
   109   55  121 1    
   110   56  122 1    
   111   56  123 1    
   112   56  124 1    
   113   57   58 2    
   114   57   59 am   BACKBONE|DICT|INTERRES
   115   59   60 1    
   116   59  125 1    
   117   60   61 1    
   118   60   62 1    
   119   60  126 1    
   120   61  127 1    
   121   61  128 1    
   122   61  129 1    
   123   62   63 2    
   124   62   64 am   BACKBONE|DICT|INTERRES
   125   64   65 1    
   126   64  130 1    
   127   65   66 1    
   128   65   69 1    
   129   65  131 1    
   130   66   67 am   BACKBONE|DICT|INTERRES
   131   66   68 2    
   132   67  132 1    
   133   67  133 1    
   134   69   70 1    
   135   69  134 1    
   136   69  135 1    
   137   70   71 1    
   138   71  136 1    
   139   71  137 1    
@<TRIPOS>SUBSTRUCTURE
     1 UNK         1 GROUP             0       ****    0 ROOT    
