@<TRIPOS>MOLECULE
3R137
137   139    1
SMALL
USER_CHARGES


@<TRIPOS>ATOM
      1 CA         26.0832   -6.1600   -4.3420 C.3       0 UNK        -0.2020 
      2 C          26.0101   -5.1395   -3.2171 C.2       0 UNK         0.4855 
      3 O          24.9271   -4.9019   -2.6803 O.2       0 UNK        -0.5197 
      4 N          27.1509   -4.5293   -2.8639 N.am      1 UNK        -0.4892 
      5 CA         27.2988   -3.5002   -1.8263 C.3       1 UNK         0.0835 
      6 C6         28.7481   -2.9689   -1.7391 C.3       12 UNK        -0.0855 
      7 S7         30.0126   -4.2480   -1.4492 S.3       12 UNK        -0.2931 
      8 C8         31.4342   -3.2082   -0.9693 C.3       12 UNK         0.0378 
      9 C9         31.7351   -2.1340   -2.0083 C.ar      12 UNK        -0.0802 
     10 C10        32.4702   -2.4476   -3.1546 C.ar      12 UNK        -0.0944 
     11 C11        32.7254   -1.4717   -4.1234 C.ar      12 UNK        -0.0787 
     12 C12        32.2364   -0.1743   -3.9381 C.ar      12 UNK        -0.0862 
     13 C13        31.5012    0.1543   -2.7944 C.ar      12 UNK        -0.0733 
     14 C14        31.2637   -0.8288   -1.8294 C.ar      12 UNK        -0.0832 
     15 C15        30.9897    1.5745   -2.5772 C.3       12 UNK         0.0240 
     16 S16        29.9676    2.1966   -3.9522 S.3       12 UNK        -0.2522 
     17 C17        28.4770    1.1477   -3.8549 C.3       12 UNK        -0.0967 
     18 CA         27.7318    1.0892   -5.2146 C.3       5 UNK         0.0660 
     19 N          27.0354   -0.1890   -5.3982 N.am      5 UNK        -0.4015 
     20 C          26.4989   -0.6221   -6.5482 C.2       4 UNK         0.4946 
     21 O          26.3937    0.0714   -7.5593 O.2       4 UNK        -0.5353 
     22 CA         25.9698   -2.0594   -6.5646 C.3       4 UNK         0.0277 
     23 CB         27.1168   -3.0672   -6.3699 C.3       4 UNK        -0.1981 
     24 N          24.9561   -2.2569   -5.5287 N.am      4 UNK        -0.4209 
     25 C          23.6332   -2.2611   -5.7468 C.2       3 UNK         0.4942 
     26 O          23.1229   -2.0777   -6.8524 O.2       3 UNK        -0.5208 
     27 CA         22.7092   -2.5378   -4.5456 C.3       3 UNK         0.0250 
     28 CB         22.1682   -3.9759   -4.6064 C.3       3 UNK        -0.1990 
     29 N          23.3629   -2.3250   -3.2520 N.am      3 UNK        -0.4232 
     30 C          23.5350   -1.1189   -2.6910 C.2       2 UNK         0.4993 
     31 O          23.1143   -0.0730   -3.1835 O.2       2 UNK        -0.5286 
     32 CA         24.3415   -1.0524   -1.3799 C.3       2 UNK         0.0209 
     33 CB         23.3979   -1.0841   -0.1670 C.3       2 UNK        -0.1931 
     34 N          25.3518   -2.1076   -1.2377 N.am      2 UNK        -0.4546 
     35 C          26.3585   -2.3123   -2.0968 C.2       1 UNK         0.5154 
     36 O          26.5421   -1.6299   -3.1072 O.2       1 UNK        -0.5181 
     37 C          26.8259    2.3192   -5.4465 C.2       5 UNK         0.5014 
     38 O          27.3241    3.3736   -5.8433 O.2       5 UNK        -0.5248 
     39 N          25.5090    2.1559   -5.2453 N.am      6 UNK        -0.4434 
     40 CA         24.4876    3.1507   -5.5802 C.3       6 UNK         0.0363 
     41 CB         23.1402    2.7184   -4.9818 C.3       6 UNK        -0.1936 
     42 C          24.3457    3.4019   -7.0942 C.2       6 UNK         0.5081 
     43 O          23.9300    4.4965   -7.4758 O.2       6 UNK        -0.5248 
     44 N          24.6874    2.4066   -7.9262 N.am      7 UNK        -0.4718 
     45 CA         24.7455    2.5387   -9.3811 C.3       7 UNK         0.0273 
     46 CB         24.3878    1.2015  -10.0528 C.3       7 UNK        -0.1935 
     47 C          26.1336    3.0330   -9.8104 C.2       7 UNK         0.5018 
     48 O          26.2191    4.0514  -10.4982 O.2       7 UNK        -0.5186 
     49 N          27.1905    2.3304   -9.3794 N.am      8 UNK        -0.4240 
     50 CA         28.5874    2.6823   -9.6329 C.3       8 UNK         0.0235 
     51 CB         28.9570    2.4317  -11.1094 C.3       8 UNK        -0.2000 
     52 C          29.4961    1.8508   -8.7254 C.2       8 UNK         0.4941 
     53 O          29.2217    0.6693   -8.5054 O.2       8 UNK        -0.5273 
     54 N          30.6086    2.4448   -8.2755 N.am      9 UNK        -0.4262 
     55 CA         31.6597    1.7839   -7.4932 C.3       9 UNK         0.0264 
     56 CB         32.4820    2.8548   -6.7519 C.3       9 UNK        -0.1955 
     57 C          32.5382    0.8738   -8.3764 C.2       9 UNK         0.5031 
     58 O          33.7447    1.0968   -8.4993 O.2       9 UNK        -0.5390 
     59 N          31.9090   -0.1261   -9.0042 N.am      10 UNK        -0.4204 
     60 CA         32.5030   -1.0712   -9.9511 C.3       10 UNK         0.0237 
     61 CB         31.3773   -1.6696  -10.8159 C.3       10 UNK        -0.1985 
     62 C          33.3534   -2.1484   -9.2502 C.2       10 UNK         0.4970 
     63 O          33.0506   -3.3387   -9.3506 O.2       10 UNK        -0.4914 
     64 N          34.3967   -1.7076   -8.5391 N.am      11 UNK        -0.4285 
     65 CA         35.3492   -2.5653   -7.8176 C.3       11 UNK         0.1007 
     66 C          36.3542   -3.3237   -8.7352 C.2       11 UNK         0.5703 
     67 N          36.4754   -2.9911  -10.0153 N.am      11 UNK        -0.7361 
     68 O          37.0323   -4.2396   -8.2754 O.2       11 UNK        -0.4986 
     69 C69        36.1054   -1.7768   -6.7127 C.3       12 UNK        -0.0947 
     70 S70        35.1117   -0.9428   -5.4188 S.3       12 UNK        -0.2240 
     71 C71        33.5175   -1.8242   -5.3736 C.3       12 UNK         0.0194 
     72 H72        25.7829   -7.1416   -3.9764 H         1 UNK         0.0906 
     73 H73        25.4082   -5.8762   -5.1488 H         1 UNK         0.0906 
     74 H74        27.0888   -6.2432   -4.7537 H         1 UNK         0.0906 
     75 H75        28.0109   -4.7799   -3.3312 H         1 UNK         0.3140 
     76 H76        27.0351   -3.9542   -0.8690 H         1 UNK         0.1085 
     77 H77        28.8218   -2.2320   -0.9366 H         1 UNK         0.0836 
     78 H78        29.0173   -2.4495   -2.6619 H         1 UNK         0.0836 
     79 H79        32.3099   -3.8445   -0.8326 H         1 UNK         0.0731 
     80 H80        31.2347   -2.7541    0.0027 H         1 UNK         0.0731 
     81 H81        32.8339   -3.4567   -3.2938 H         1 UNK         0.1312 
     82 H82        32.4360    0.5837   -4.6817 H         1 UNK         0.1406 
     83 H83        30.7015   -0.5809   -0.9393 H         1 UNK         0.1631 
     84 H84        31.8478    2.2368   -2.4561 H         1 UNK         0.0717 
     85 H85        30.4136    1.6478   -1.6534 H         1 UNK         0.0717 
     86 H86        28.7998    0.1464   -3.5652 H         1 UNK         0.0934 
     87 H87        27.8276    1.4961   -3.0494 H         1 UNK         0.0934 
     88 H88        28.4841    1.1138   -6.0041 H         1 UNK         0.0739 
     89 H89        26.9910   -0.7947   -4.5791 H         1 UNK         0.3093 
     90 H90        25.5394   -2.2393   -7.5523 H         1 UNK         0.0818 
     91 H91        27.9030   -2.9090   -7.1097 H         1 UNK         0.0819 
     92 H92        27.5763   -2.9855   -5.3844 H         1 UNK         0.0819 
     93 H93        26.7638   -4.0909   -6.4909 H         1 UNK         0.0819 
     94 H94        25.2918   -2.3368   -4.5761 H         1 UNK         0.3041 
     95 H95        21.8593   -1.8562   -4.6249 H         1 UNK         0.0784 
     96 H96        21.6216   -4.1480   -5.5348 H         1 UNK         0.0793 
     97 H97        22.9701   -4.7133   -4.5608 H         1 UNK         0.0793 
     98 H98        21.4804   -4.1768   -3.7849 H         1 UNK         0.0793 
     99 H99        23.7670   -3.1419   -2.8041 H         1 UNK         0.3024 
    100 H100       24.8673   -0.0948   -1.3809 H         1 UNK         0.1171 
    101 H101       23.9426   -0.9317    0.7650 H         1 UNK         0.0786 
    102 H102       22.6488   -0.2936   -0.2344 H         1 UNK         0.0786 
    103 H103       22.8647   -2.0330   -0.0950 H         1 UNK         0.0786 
    104 H104       25.2438   -2.7340   -0.4525 H         1 UNK         0.2977 
    105 H105       25.1793    1.2612   -4.9117 H         1 UNK         0.3127 
    106 H106       24.7780    4.0969   -5.1186 H         1 UNK         0.0770 
    107 H107       22.8102    1.7582   -5.3807 H         1 UNK         0.0814 
    108 H108       22.3611    3.4491   -5.2034 H         1 UNK         0.0814 
    109 H109       23.1982    2.6288   -3.8969 H         1 UNK         0.0814 
    110 H110       25.0846    1.5543   -7.5430 H         1 UNK         0.2983 
    111 H111       24.0102    3.2768   -9.7100 H         1 UNK         0.0947 
    112 H112       25.0911    0.4083   -9.7991 H         1 UNK         0.0806 
    113 H113       24.3917    1.3015  -11.1389 H         1 UNK         0.0806 
    114 H114       23.3917    0.8679   -9.7616 H         1 UNK         0.0806 
    115 H115       27.0481    1.5036   -8.8007 H         1 UNK         0.3000 
    116 H116       28.7255    3.7392   -9.3948 H         1 UNK         0.0850 
    117 H117       30.0116    2.6429  -11.2918 H         1 UNK         0.0810 
    118 H118       28.3840    3.0671  -11.7844 H         1 UNK         0.0810 
    119 H119       28.7786    1.3941  -11.3950 H         1 UNK         0.0810 
    120 H120       30.7867    3.4038   -8.5381 H         1 UNK         0.3040 
    121 H121       31.1863    1.1477   -6.7421 H         1 UNK         0.0766 
    122 H122       31.8542    3.4476   -6.0866 H         1 UNK         0.0812 
    123 H123       32.9756    3.5374   -7.4447 H         1 UNK         0.0812 
    124 H124       33.2592    2.3968   -6.1386 H         1 UNK         0.0812 
    125 H125       30.9057   -0.1995   -8.8500 H         1 UNK         0.3205 
    126 H126       33.1709   -0.5185  -10.6152 H         1 UNK         0.0754 
    127 H127       31.7787   -2.3546  -11.5641 H         1 UNK         0.0769 
    128 H128       30.8326   -0.8912  -11.3509 H         1 UNK         0.0769 
    129 H129       30.6580   -2.2263  -10.2135 H         1 UNK         0.0769 
    130 H130       34.5427   -0.7043   -8.4769 H         1 UNK         0.2981 
    131 H131       34.7751   -3.3548   -7.3322 H         1 UNK         0.0541 
    132 H132       35.9292   -2.2390  -10.4027 H         1 UNK         0.3459 
    133 H133       37.1269   -3.4946  -10.5965 H         1 UNK         0.3459 
    134 H134       36.7884   -2.4453   -6.1852 H         1 UNK         0.0612 
    135 H135       36.7372   -1.0148   -7.1727 H         1 UNK         0.0612 
    136 H136       32.9247   -1.5688   -6.2517 H         1 UNK         0.0624 
    137 H137       33.6966   -2.8992   -5.4080 H         1 UNK         0.0624 
@<TRIPOS>BOND
     1    1    2 1    
     2    1   72 1    
     3    1   73 1    
     4    1   74 1    
     5    2    3 2    
     6    2    4 am   BACKBONE|DICT|INTERRES
     7    4    5 1    
     8    4   75 1    
     9    5    6 1    
    10    5   35 1    
    11    5   76 1    
    12    6    7 1    
    13    6   77 1    
    14    6   78 1    
    15    7    8 1    
    16    8    9 1    
    17    8   79 1    
    18    8   80 1    
    19    9   10 ar   
    20    9   14 ar   
    21   10   11 ar   
    22   10   81 1    
    23   11   12 ar   
    24   11   71 1    
    25   12   13 ar   
    26   12   82 1    
    27   13   14 ar   
    28   13   15 1    
    29   14   83 1    
    30   15   16 1    
    31   15   84 1    
    32   15   85 1    
    33   16   17 1    
    34   17   18 1    
    35   17   86 1    
    36   17   87 1    
    37   18   19 1    
    38   18   37 1    
    39   18   88 1    
    40   19   20 am   BACKBONE|DICT|INTERRES
    41   19   89 1    
    42   20   21 2    
    43   20   22 1    
    44   22   23 1    
    45   22   24 1    
    46   22   90 1    
    47   23   91 1    
    48   23   92 1    
    49   23   93 1    
    50   24   25 am   BACKBONE|DICT|INTERRES
    51   24   94 1    
    52   25   26 2    
    53   25   27 1    
    54   27   28 1    
    55   27   29 1    
    56   27   95 1    
    57   28   96 1    
    58   28   97 1    
    59   28   98 1    
    60   29   30 am   BACKBONE|DICT|INTERRES
    61   29   99 1    
    62   30   31 2    
    63   30   32 1    
    64   32   33 1    
    65   32   34 1    
    66   32  100 1    
    67   33  101 1    
    68   33  102 1    
    69   33  103 1    
    70   34   35 am   BACKBONE|DICT|INTERRES
    71   34  104 1    
    72   35   36 2    
    73   37   38 2    
    74   37   39 am   BACKBONE|DICT|INTERRES
    75   39   40 1    
    76   39  105 1    
    77   40   41 1    
    78   40   42 1    
    79   40  106 1    
    80   41  107 1    
    81   41  108 1    
    82   41  109 1    
    83   42   43 2    
    84   42   44 am   BACKBONE|DICT|INTERRES
    85   44   45 1    
    86   44  110 1    
    87   45   46 1    
    88   45   47 1    
    89   45  111 1    
    90   46  112 1    
    91   46  113 1    
    92   46  114 1    
    93   47   48 2    
    94   47   49 am   BACKBONE|DICT|INTERRES
    95   49   50 1    
    96   49  115 1    
    97   50   51 1    
    98   50   52 1    
    99   50  116 1    
   100   51  117 1    
   101   51  118 1    
   102   51  119 1    
   103   52   53 2    
   104   52   54 am   BACKBONE|DICT|INTERRES
   105   54   55 1    
   106   54  120 1    
   107   55   56 1    
   108   55   57 1    
   109   55  121 1    
   110   56  122 1    
   111   56  123 1    
   112   56  124 1    
   113   57   58 2    
   114   57   59 am   BACKBONE|DICT|INTERRES
   115   59   60 1    
   116   59  125 1    
   117   60   61 1    
   118   60   62 1    
   119   60  126 1    
   120   61  127 1    
   121   61  128 1    
   122   61  129 1    
   123   62   63 2    
   124   62   64 am   BACKBONE|DICT|INTERRES
   125   64   65 1    
   126   64  130 1    
   127   65   66 1    
   128   65   69 1    
   129   65  131 1    
   130   66   67 am   BACKBONE|DICT|INTERRES
   131   66   68 2    
   132   67  132 1    
   133   67  133 1    
   134   69   70 1    
   135   69  134 1    
   136   69  135 1    
   137   70   71 1    
   138   71  136 1    
   139   71  137 1    
@<TRIPOS>SUBSTRUCTURE
     1 UNK         1 GROUP             0       ****    0 ROOT    
