@<TRIPOS>MOLECULE
3R137
137   139    1
SMALL
USER_CHARGES


@<TRIPOS>ATOM
      1 CA         30.7164   -1.0375   -0.4959 C.3       0 UNK        -0.2020 
      2 C          29.8157   -1.8571    0.4220 C.2       0 UNK         0.4855 
      3 O          30.0418   -1.8745    1.6287 O.2       0 UNK        -0.5197 
      4 N          28.7904   -2.5529   -0.0883 N.am      1 UNK        -0.4892 
      5 CA         28.3746   -2.6207   -1.4967 C.3       1 UNK         0.0835 
      6 C6         27.4562   -3.8402   -1.7690 C.3       12 UNK        -0.0855 
      7 S7         28.0225   -5.4803   -1.1730 S.3       12 UNK        -0.2931 
      8 C8         29.8431   -5.4943   -1.3627 C.3       12 UNK         0.0378 
      9 C9         30.3303   -5.1310   -2.7615 C.ar      12 UNK        -0.0802 
     10 C10        31.4295   -4.2780   -2.9063 C.ar      12 UNK        -0.0944 
     11 C11        31.8543   -3.8762   -4.1749 C.ar      12 UNK        -0.0787 
     12 C12        31.1949   -4.3579   -5.3066 C.ar      12 UNK        -0.0862 
     13 C13        30.0943   -5.2088   -5.1767 C.ar      12 UNK        -0.0733 
     14 C14        29.6814   -5.6120   -3.9046 C.ar      12 UNK        -0.0832 
     15 C15        29.3046   -5.6282   -6.4078 C.3       12 UNK         0.0240 
     16 S16        27.7304   -4.7130   -6.5259 S.3       12 UNK        -0.2522 
     17 C17        28.2978   -2.9805   -6.4090 C.3       12 UNK        -0.0967 
     18 CA         27.5225   -2.0221   -7.3359 C.3       5 UNK         0.0660 
     19 N          26.0829   -2.0301   -7.0619 N.am      5 UNK        -0.4015 
     20 C          25.1588   -1.4560   -7.8427 C.2       4 UNK         0.4946 
     21 O          25.4209   -0.8730   -8.8927 O.2       4 UNK        -0.5353 
     22 CA         23.6996   -1.5009   -7.3567 C.3       4 UNK         0.0277 
     23 CB         23.0089   -2.7803   -7.8545 C.3       4 UNK        -0.1981 
     24 N          23.5397   -1.3911   -5.9019 N.am      4 UNK        -0.4209 
     25 C          24.0042   -0.3896   -5.1411 C.2       3 UNK         0.4942 
     26 O          24.6733    0.5462   -5.5854 O.2       3 UNK        -0.5208 
     27 CA         23.7000   -0.4426   -3.6361 C.3       3 UNK         0.0250 
     28 CB         23.1389   -1.7930   -3.1388 C.3       3 UNK        -0.1990 
     29 N          24.9273   -0.1256   -2.9161 N.am      3 UNK        -0.4232 
     30 C          25.0250    0.5279   -1.7568 C.2       2 UNK         0.4993 
     31 O          24.0542    0.9326   -1.1142 O.2       2 UNK        -0.5286 
     32 CA         26.4577    0.7391   -1.2242 C.3       2 UNK         0.0209 
     33 CB         26.4914    1.5450    0.0879 C.3       2 UNK        -0.1931 
     34 N          27.1722   -0.5248   -1.0170 N.am      2 UNK        -0.4546 
     35 C          27.6710   -1.3290   -1.9684 C.2       1 UNK         0.5154 
     36 O          27.5783   -1.0915   -3.1746 O.2       1 UNK        -0.5181 
     37 C          28.1251   -0.6042   -7.2563 C.2       5 UNK         0.5014 
     38 O          28.9638   -0.2530   -8.0881 O.2       5 UNK        -0.5248 
     39 N          27.6823    0.1941   -6.2750 N.am      6 UNK        -0.4434 
     40 CA         28.0727    1.5959   -6.1254 C.3       6 UNK         0.0363 
     41 CB         27.7204    2.0975   -4.7183 C.3       6 UNK        -0.1936 
     42 C          27.4426    2.4822   -7.2095 C.2       6 UNK         0.5081 
     43 O          28.1253    3.3629   -7.7298 O.2       6 UNK        -0.5248 
     44 N          26.1839    2.2010   -7.5798 N.am      7 UNK        -0.4718 
     45 CA         25.4870    2.8474   -8.6992 C.3       7 UNK         0.0273 
     46 CB         24.0102    2.4238   -8.7082 C.3       7 UNK        -0.1935 
     47 C          26.1510    2.5629  -10.0605 C.2       7 UNK         0.5018 
     48 O          26.2443    3.4675  -10.8903 O.2       7 UNK        -0.5186 
     49 N          26.6460    1.3304  -10.2423 N.am      8 UNK        -0.4240 
     50 CA         27.4631    0.8982  -11.3811 C.3       8 UNK         0.0235 
     51 CB         27.4365   -0.6378  -11.4567 C.3       8 UNK        -0.2000 
     52 C          28.9191    1.4073  -11.3360 C.2       8 UNK         0.4941 
     53 O          29.6488    1.1948  -12.3053 O.2       8 UNK        -0.5273 
     54 N          29.3180    2.0548  -10.2305 N.am      9 UNK        -0.4262 
     55 CA         30.6384    2.6240   -9.9480 C.3       9 UNK         0.0264 
     56 CB         30.9670    3.7750  -10.9236 C.3       9 UNK        -0.1955 
     57 C          31.7591    1.5708   -9.8508 C.2       9 UNK         0.5031 
     58 O          32.8892    1.8469  -10.2588 O.2       9 UNK        -0.5390 
     59 N          31.4491    0.3949   -9.2824 N.am      10 UNK        -0.4204 
     60 CA         32.4330   -0.6549   -8.9914 C.3       10 UNK         0.0237 
     61 CB         31.7102   -1.9754   -8.6811 C.3       10 UNK        -0.1985 
     62 C          33.3680   -0.2711   -7.8306 C.2       10 UNK         0.4970 
     63 O          34.5570   -0.5867   -7.8795 O.2       10 UNK        -0.4914 
     64 N          32.8118    0.4106   -6.8238 N.am      11 UNK        -0.4285 
     65 CA         33.5102    0.9079   -5.6295 C.3       11 UNK         0.1007 
     66 C          32.8265    2.1559   -4.9978 C.2       11 UNK         0.5703 
     67 N          31.9343    2.8486   -5.6981 N.am      11 UNK        -0.7361 
     68 O          33.1220    2.5239   -3.8637 O.2       11 UNK        -0.4986 
     69 C69        33.8390   -0.2178   -4.6066 C.3       12 UNK        -0.0947 
     70 S70        32.3795   -1.1841   -4.0902 S.3       12 UNK        -0.2240 
     71 C71        32.9900   -2.8803   -4.3260 C.3       12 UNK         0.0194 
     72 H72        30.1801   -0.1840   -0.9115 H         1 UNK         0.0906 
     73 H73        31.5718   -0.6500    0.0576 H         1 UNK         0.0906 
     74 H74        31.1052   -1.6439   -1.3129 H         1 UNK         0.0906 
     75 H75        28.2345   -3.1122    0.5421 H         1 UNK         0.3140 
     76 H76        29.2596   -2.7211   -2.1222 H         1 UNK         0.1085 
     77 H77        26.4717   -3.6733   -1.3283 H         1 UNK         0.0836 
     78 H78        27.2833   -3.9332   -2.8426 H         1 UNK         0.0836 
     79 H79        30.2063   -6.4939   -1.1218 H         1 UNK         0.0731 
     80 H80        30.2788   -4.8289   -0.6168 H         1 UNK         0.0731 
     81 H81        31.9363   -3.8953   -2.0309 H         1 UNK         0.1312 
     82 H82        31.5117   -4.0334   -6.2880 H         1 UNK         0.1406 
     83 H83        28.8218   -6.2609   -3.8060 H         1 UNK         0.1631 
     84 H84        29.0955   -6.6980   -6.3651 H         1 UNK         0.0717 
     85 H85        29.8850   -5.4629   -7.3169 H         1 UNK         0.0717 
     86 H86        28.2298   -2.6659   -5.3653 H         1 UNK         0.0934 
     87 H87        29.3543   -2.9415   -6.6695 H         1 UNK         0.0934 
     88 H88        27.6587   -2.3675   -8.3631 H         1 UNK         0.0739 
     89 H89        25.7843   -2.5150   -6.2291 H         1 UNK         0.3093 
     90 H90        23.1858   -0.6459   -7.7996 H         1 UNK         0.0818 
     91 H91        21.9451   -2.7768   -7.6168 H         1 UNK         0.0819 
     92 H92        23.0951   -2.8728   -8.9382 H         1 UNK         0.0819 
     93 H93        23.4495   -3.6763   -7.4153 H         1 UNK         0.0819 
     94 H94        23.0049   -2.1197   -5.4514 H         1 UNK         0.3041 
     95 H95        22.9599    0.3369   -3.4440 H         1 UNK         0.0784 
     96 H96        22.1820   -2.0272   -3.6069 H         1 UNK         0.0793 
     97 H97        23.8255   -2.6174   -3.3363 H         1 UNK         0.0793 
     98 H98        22.9611   -1.7679   -2.0635 H         1 UNK         0.0793 
     99 H99        25.7942   -0.4226   -3.3554 H         1 UNK         0.3024 
    100 H100       26.9934    1.3190   -1.9768 H         1 UNK         0.1171 
    101 H101       27.5152    1.7374    0.4094 H         1 UNK         0.0786 
    102 H102       26.0061    2.5141   -0.0356 H         1 UNK         0.0786 
    103 H103       25.9779    1.0232    0.8963 H         1 UNK         0.0786 
    104 H104       27.2718   -0.8276   -0.0585 H         1 UNK         0.2977 
    105 H105       26.9762   -0.1507   -5.6411 H         1 UNK         0.3127 
    106 H106       29.1571    1.6598   -6.2374 H         1 UNK         0.0770 
    107 H107       26.6525    2.0215   -4.5128 H         1 UNK         0.0814 
    108 H108       28.0034    3.1437   -4.5958 H         1 UNK         0.0814 
    109 H109       28.2570    1.5277   -3.9603 H         1 UNK         0.0814 
    110 H110       25.6753    1.4892   -7.0629 H         1 UNK         0.2983 
    111 H111       25.5296    3.9259   -8.5326 H         1 UNK         0.0947 
    112 H112       23.4560    2.9668   -9.4748 H         1 UNK         0.0806 
    113 H113       23.5302    2.6305   -7.7515 H         1 UNK         0.0806 
    114 H114       23.8958    1.3611   -8.9187 H         1 UNK         0.0806 
    115 H115       26.4295    0.6185   -9.5486 H         1 UNK         0.3000 
    116 H116       27.0123    1.2933  -12.2936 H         1 UNK         0.0850 
    117 H117       27.9891   -0.9994  -12.3248 H         1 UNK         0.0810 
    118 H118       26.4168   -1.0136  -11.5434 H         1 UNK         0.0810 
    119 H119       27.8860   -1.0901  -10.5722 H         1 UNK         0.0810 
    120 H120       28.6387    2.1753   -9.4890 H         1 UNK         0.3040 
    121 H121       30.5622    3.0623   -8.9525 H         1 UNK         0.0766 
    122 H122       31.1281    3.4130  -11.9393 H         1 UNK         0.0812 
    123 H123       31.8736    4.2992  -10.6192 H         1 UNK         0.0812 
    124 H124       30.1635    4.5109  -10.9522 H         1 UNK         0.0812 
    125 H125       30.4925    0.2274   -8.9690 H         1 UNK         0.3205 
    126 H126       33.0459   -0.8039   -9.8828 H         1 UNK         0.0754 
    127 H127       32.4246   -2.7899   -8.5558 H         1 UNK         0.0769 
    128 H128       31.0306   -2.2575   -9.4854 H         1 UNK         0.0769 
    129 H129       31.1321   -1.9061   -7.7605 H         1 UNK         0.0769 
    130 H130       31.8185    0.5832   -6.8451 H         1 UNK         0.2981 
    131 H131       34.4679    1.3016   -5.9737 H         1 UNK         0.0541 
    132 H132       31.7464    2.6383   -6.6619 H         1 UNK         0.3459 
    133 H133       31.5135    3.6586   -5.2716 H         1 UNK         0.3459 
    134 H134       34.3200    0.1874   -3.7151 H         1 UNK         0.0612 
    135 H135       34.5763   -0.8906   -5.0457 H         1 UNK         0.0612 
    136 H136       33.4421   -2.9720   -5.3147 H         1 UNK         0.0624 
    137 H137       33.7762   -3.0895   -3.5992 H         1 UNK         0.0624 
@<TRIPOS>BOND
     1    1    2 1    
     2    1   72 1    
     3    1   73 1    
     4    1   74 1    
     5    2    3 2    
     6    2    4 am   BACKBONE|DICT|INTERRES
     7    4    5 1    
     8    4   75 1    
     9    5    6 1    
    10    5   35 1    
    11    5   76 1    
    12    6    7 1    
    13    6   77 1    
    14    6   78 1    
    15    7    8 1    
    16    8    9 1    
    17    8   79 1    
    18    8   80 1    
    19    9   10 ar   
    20    9   14 ar   
    21   10   11 ar   
    22   10   81 1    
    23   11   12 ar   
    24   11   71 1    
    25   12   13 ar   
    26   12   82 1    
    27   13   14 ar   
    28   13   15 1    
    29   14   83 1    
    30   15   16 1    
    31   15   84 1    
    32   15   85 1    
    33   16   17 1    
    34   17   18 1    
    35   17   86 1    
    36   17   87 1    
    37   18   19 1    
    38   18   37 1    
    39   18   88 1    
    40   19   20 am   BACKBONE|DICT|INTERRES
    41   19   89 1    
    42   20   21 2    
    43   20   22 1    
    44   22   23 1    
    45   22   24 1    
    46   22   90 1    
    47   23   91 1    
    48   23   92 1    
    49   23   93 1    
    50   24   25 am   BACKBONE|DICT|INTERRES
    51   24   94 1    
    52   25   26 2    
    53   25   27 1    
    54   27   28 1    
    55   27   29 1    
    56   27   95 1    
    57   28   96 1    
    58   28   97 1    
    59   28   98 1    
    60   29   30 am   BACKBONE|DICT|INTERRES
    61   29   99 1    
    62   30   31 2    
    63   30   32 1    
    64   32   33 1    
    65   32   34 1    
    66   32  100 1    
    67   33  101 1    
    68   33  102 1    
    69   33  103 1    
    70   34   35 am   BACKBONE|DICT|INTERRES
    71   34  104 1    
    72   35   36 2    
    73   37   38 2    
    74   37   39 am   BACKBONE|DICT|INTERRES
    75   39   40 1    
    76   39  105 1    
    77   40   41 1    
    78   40   42 1    
    79   40  106 1    
    80   41  107 1    
    81   41  108 1    
    82   41  109 1    
    83   42   43 2    
    84   42   44 am   BACKBONE|DICT|INTERRES
    85   44   45 1    
    86   44  110 1    
    87   45   46 1    
    88   45   47 1    
    89   45  111 1    
    90   46  112 1    
    91   46  113 1    
    92   46  114 1    
    93   47   48 2    
    94   47   49 am   BACKBONE|DICT|INTERRES
    95   49   50 1    
    96   49  115 1    
    97   50   51 1    
    98   50   52 1    
    99   50  116 1    
   100   51  117 1    
   101   51  118 1    
   102   51  119 1    
   103   52   53 2    
   104   52   54 am   BACKBONE|DICT|INTERRES
   105   54   55 1    
   106   54  120 1    
   107   55   56 1    
   108   55   57 1    
   109   55  121 1    
   110   56  122 1    
   111   56  123 1    
   112   56  124 1    
   113   57   58 2    
   114   57   59 am   BACKBONE|DICT|INTERRES
   115   59   60 1    
   116   59  125 1    
   117   60   61 1    
   118   60   62 1    
   119   60  126 1    
   120   61  127 1    
   121   61  128 1    
   122   61  129 1    
   123   62   63 2    
   124   62   64 am   BACKBONE|DICT|INTERRES
   125   64   65 1    
   126   64  130 1    
   127   65   66 1    
   128   65   69 1    
   129   65  131 1    
   130   66   67 am   BACKBONE|DICT|INTERRES
   131   66   68 2    
   132   67  132 1    
   133   67  133 1    
   134   69   70 1    
   135   69  134 1    
   136   69  135 1    
   137   70   71 1    
   138   71  136 1    
   139   71  137 1    
@<TRIPOS>SUBSTRUCTURE
     1 UNK         1 GROUP             0       ****    0 ROOT    
