@<TRIPOS>MOLECULE
3R137
137   139    1
SMALL
USER_CHARGES


@<TRIPOS>ATOM
      1 CA         27.0889   -5.3551    0.3146 C.3       0 UNK        -0.2020 
      2 C          27.0924   -4.8898   -1.1376 C.2       0 UNK         0.4855 
      3 O          26.8823   -5.7040   -2.0335 O.2       0 UNK        -0.5197 
      4 N          27.3196   -3.6039   -1.4323 N.am      1 UNK        -0.4892 
      5 CA         27.5555   -2.4914   -0.4986 C.3       1 UNK         0.0835 
      6 C6         29.0136   -1.9657   -0.5744 C.3       12 UNK        -0.0855 
      7 S7         30.2441   -3.2110   -0.0680 S.3       12 UNK        -0.2931 
      8 C8         31.6535   -2.7667   -1.1423 C.3       12 UNK         0.0378 
      9 C9         31.5525   -3.1865   -2.6123 C.ar      12 UNK        -0.0802 
     10 C10        32.5540   -2.7483   -3.4845 C.ar      12 UNK        -0.0944 
     11 C11        32.5638   -3.1425   -4.8248 C.ar      12 UNK        -0.0787 
     12 C12        31.5481   -3.9740   -5.3029 C.ar      12 UNK        -0.0862 
     13 C13        30.5315   -4.4178   -4.4510 C.ar      12 UNK        -0.0733 
     14 C14        30.5417   -4.0230   -3.1088 C.ar      12 UNK        -0.0832 
     15 C15        29.4721   -5.3908   -4.9578 C.3       12 UNK         0.0240 
     16 S16        28.5799   -4.7861   -6.4271 S.3       12 UNK        -0.2522 
     17 C17        27.3263   -3.6886   -5.6887 C.3       12 UNK        -0.0967 
     18 CA         26.9094   -2.5603   -6.6685 C.3       5 UNK         0.0660 
     19 N          25.5429   -2.1004   -6.4344 N.am      5 UNK        -0.4015 
     20 C          24.5508   -2.1505   -7.3340 C.2       4 UNK         0.4946 
     21 O          24.6119   -2.7822   -8.3893 O.2       4 UNK        -0.5353 
     22 CA         23.2679   -1.3466   -7.0338 C.3       4 UNK         0.0277 
     23 CB         22.1356   -2.2899   -6.5950 C.3       4 UNK        -0.1981 
     24 N          23.4227   -0.2908   -6.0276 N.am      4 UNK        -0.4209 
     25 C          24.2913    0.7299   -6.0783 C.2       3 UNK         0.4942 
     26 O          25.0482    0.9455   -7.0256 O.2       3 UNK        -0.5208 
     27 CA         24.4093    1.5985   -4.8123 C.3       3 UNK         0.0250 
     28 CB         23.4723    2.8122   -4.9074 C.3       3 UNK        -0.1990 
     29 N          24.1577    0.8795   -3.5536 N.am      3 UNK        -0.4232 
     30 C          24.7781   -0.2410   -3.1541 C.2       2 UNK         0.4993 
     31 O          25.6189   -0.8404   -3.8336 O.2       2 UNK        -0.5286 
     32 CA         24.3365   -0.8269   -1.8038 C.3       2 UNK         0.0209 
     33 CB         23.0112   -1.5908   -1.9637 C.3       2 UNK        -0.1931 
     34 N          25.3481   -1.7474   -1.2841 N.am      2 UNK        -0.4546 
     35 C          26.5258   -1.3716   -0.7654 C.2       1 UNK         0.5154 
     36 O          26.8088   -0.1973   -0.5210 O.2       1 UNK        -0.5181 
     37 C          27.8664   -1.3565   -6.6067 C.2       5 UNK         0.5014 
     38 O          28.6046   -1.1234   -7.5629 O.2       5 UNK        -0.5248 
     39 N          27.8307   -0.6054   -5.4953 N.am      6 UNK        -0.4434 
     40 CA         28.8125    0.4234   -5.1462 C.3       6 UNK         0.0363 
     41 CB         28.5505    0.9224   -3.7172 C.3       6 UNK        -0.1936 
     42 C          28.8833    1.6089   -6.1189 C.2       6 UNK         0.5081 
     43 O          29.9845    2.0759   -6.4090 O.2       6 UNK        -0.5248 
     44 N          27.7290    2.0781   -6.6072 N.am      7 UNK        -0.4718 
     45 CA         27.6568    3.1527   -7.5984 C.3       7 UNK         0.0273 
     46 CB         26.3812    3.9858   -7.3916 C.3       7 UNK        -0.1935 
     47 C          27.7181    2.5784   -9.0184 C.2       7 UNK         0.5018 
     48 O          28.3937    3.1565   -9.8686 O.2       7 UNK        -0.5186 
     49 N          27.0465    1.4380   -9.2385 N.am      8 UNK        -0.4240 
     50 CA         26.9793    0.7256  -10.5181 C.3       8 UNK         0.0235 
     51 CB         26.0492   -0.4878  -10.3780 C.3       8 UNK        -0.2000 
     52 C          28.3515    0.2941  -11.0650 C.2       8 UNK         0.4941 
     53 O          28.6177    0.4998  -12.2497 O.2       8 UNK        -0.5273 
     54 N          29.2029   -0.2679  -10.1960 N.am      9 UNK        -0.4262 
     55 CA         30.5784   -0.6595  -10.5193 C.3       9 UNK         0.0264 
     56 CB         30.9486   -1.9041   -9.6945 C.3       9 UNK        -0.1955 
     57 C          31.5963    0.4755  -10.2911 C.2       9 UNK         0.5031 
     58 O          32.7767    0.2770  -10.5826 O.2       9 UNK        -0.5390 
     59 N          31.1364    1.6296   -9.7801 N.am      10 UNK        -0.4204 
     60 CA         31.9104    2.8271   -9.4266 C.3       10 UNK         0.0237 
     61 CB         32.4657    3.5135  -10.6928 C.3       10 UNK        -0.1985 
     62 C          32.9902    2.5589   -8.3579 C.2       10 UNK         0.4970 
     63 O          34.0992    3.0896   -8.4498 O.2       10 UNK        -0.4914 
     64 N          32.6377    1.7413   -7.3607 N.am      11 UNK        -0.4285 
     65 CA         33.4688    1.4284   -6.1909 C.3       11 UNK         0.1007 
     66 C          33.3991    2.5312   -5.0997 C.2       11 UNK         0.5703 
     67 N          32.3020    3.2726   -4.9909 N.am      11 UNK        -0.7361 
     68 O          34.3540    2.7187   -4.3497 O.2       11 UNK        -0.4986 
     69 C69        33.1121    0.0476   -5.5836 C.3       12 UNK        -0.0947 
     70 S70        33.2300   -1.3073   -6.7980 S.3       12 UNK        -0.2240 
     71 C71        33.6980   -2.7114   -5.7442 C.3       12 UNK         0.0194 
     72 H72        28.0212   -5.0912    0.8126 H         1 UNK         0.0906 
     73 H73        26.2569   -4.9113    0.8605 H         1 UNK         0.0906 
     74 H74        26.9824   -6.4384    0.3682 H         1 UNK         0.0906 
     75 H75        27.2945   -3.3292   -2.4037 H         1 UNK         0.3140 
     76 H76        27.3675   -2.7976    0.5310 H         1 UNK         0.1085 
     77 H77        29.2392   -1.6299   -1.5874 H         1 UNK         0.0836 
     78 H78        29.1522   -1.0985    0.0742 H         1 UNK         0.0836 
     79 H79        32.5483   -3.2276   -0.7217 H         1 UNK         0.0731 
     80 H80        31.8097   -1.6882   -1.0832 H         1 UNK         0.0731 
     81 H81        33.3476   -2.1155   -3.1108 H         1 UNK         0.1312 
     82 H82        31.5582   -4.2906   -6.3371 H         1 UNK         0.1406 
     83 H83        29.7749   -4.4002   -2.4492 H         1 UNK         0.1631 
     84 H84        28.7508   -5.6349   -4.1761 H         1 UNK         0.0717 
     85 H85        29.9660   -6.3279   -5.2176 H         1 UNK         0.0717 
     86 H86        26.4647   -4.3140   -5.4479 H         1 UNK         0.0934 
     87 H87        27.6821   -3.2942   -4.7351 H         1 UNK         0.0934 
     88 H88        26.9774   -2.9521   -7.6859 H         1 UNK         0.0739 
     89 H89        25.3935   -1.5761   -5.5772 H         1 UNK         0.3093 
     90 H90        22.9724   -0.8623   -7.9668 H         1 UNK         0.0818 
     91 H91        21.1933   -1.7542   -6.4785 H         1 UNK         0.0819 
     92 H92        21.9695   -3.0727   -7.3367 H         1 UNK         0.0819 
     93 H93        22.3640   -2.7816   -5.6485 H         1 UNK         0.0819 
     94 H94        22.8547   -0.3785   -5.1980 H         1 UNK         0.3041 
     95 H95        25.4349    1.9681   -4.7690 H         1 UNK         0.0784 
     96 H96        23.6472    3.3721   -5.8273 H         1 UNK         0.0793 
     97 H97        22.4228    2.5148   -4.9026 H         1 UNK         0.0793 
     98 H98        23.6303    3.5021   -4.0782 H         1 UNK         0.0793 
     99 H99        23.4688    1.2911   -2.9394 H         1 UNK         0.3024 
    100 H100       24.2018   -0.0095   -1.0914 H         1 UNK         0.1171 
    101 H101       22.2125   -0.9314   -2.3055 H         1 UNK         0.0786 
    102 H102       23.0964   -2.4027   -2.6876 H         1 UNK         0.0786 
    103 H103       22.6860   -2.0211   -1.0161 H         1 UNK         0.0786 
    104 H104       25.2102   -2.7283   -1.4789 H         1 UNK         0.2977 
    105 H105       27.1261   -0.8041   -4.7869 H         1 UNK         0.3127 
    106 H106       29.7895   -0.0622   -5.1583 H         1 UNK         0.0770 
    107 H107       27.5790    1.4092   -3.6286 H         1 UNK         0.0814 
    108 H108       29.3079    1.6456   -3.4114 H         1 UNK         0.0814 
    109 H109       28.5765    0.1045   -2.9992 H         1 UNK         0.0814 
    110 H110       26.8645    1.5953   -6.3937 H         1 UNK         0.2983 
    111 H111       28.5097    3.8240   -7.4718 H         1 UNK         0.0947 
    112 H112       26.3808    4.8560   -8.0492 H         1 UNK         0.0806 
    113 H113       26.3076    4.3535   -6.3681 H         1 UNK         0.0806 
    114 H114       25.4770    3.4195   -7.6121 H         1 UNK         0.0806 
    115 H115       26.4869    1.0655   -8.4784 H         1 UNK         0.3000 
    116 H116       26.5371    1.4110  -11.2442 H         1 UNK         0.0850 
    117 H117       25.9293   -1.0017  -11.3326 H         1 UNK         0.0810 
    118 H118       25.0552   -0.1935  -10.0402 H         1 UNK         0.0810 
    119 H119       26.4439   -1.2130   -9.6659 H         1 UNK         0.0810 
    120 H120       28.9000   -0.4461   -9.2379 H         1 UNK         0.3040 
    121 H121       30.6374   -0.9331  -11.5748 H         1 UNK         0.0766 
    122 H122       30.9349   -1.6956   -8.6249 H         1 UNK         0.0812 
    123 H123       31.9500   -2.2582   -9.9425 H         1 UNK         0.0812 
    124 H124       30.2574   -2.7257   -9.8818 H         1 UNK         0.0812 
    125 H125       30.1399    1.7012   -9.6210 H         1 UNK         0.3205 
    126 H126       31.2008    3.5163   -8.9658 H         1 UNK         0.0754 
    127 H127       32.9301    4.4696  -10.4483 H         1 UNK         0.0769 
    128 H128       31.6723    3.7149  -11.4127 H         1 UNK         0.0769 
    129 H129       33.2209    2.9018  -11.1873 H         1 UNK         0.0769 
    130 H130       31.6731    1.4369   -7.3050 H         1 UNK         0.2981 
    131 H131       34.5087    1.3784   -6.5198 H         1 UNK         0.0541 
    132 H132       31.4952    3.0665   -5.5702 H         1 UNK         0.3459 
    133 H133       32.2546    3.9932   -4.2890 H         1 UNK         0.3459 
    134 H134       32.1010    0.0524   -5.1756 H         1 UNK         0.0612 
    135 H135       33.7793   -0.1733   -4.7487 H         1 UNK         0.0612 
    136 H136       34.5891   -2.4552   -5.1691 H         1 UNK         0.0624 
    137 H137       33.9820   -3.5471   -6.3853 H         1 UNK         0.0624 
@<TRIPOS>BOND
     1    1    2 1    
     2    1   72 1    
     3    1   73 1    
     4    1   74 1    
     5    2    3 2    
     6    2    4 am   BACKBONE|DICT|INTERRES
     7    4    5 1    
     8    4   75 1    
     9    5    6 1    
    10    5   35 1    
    11    5   76 1    
    12    6    7 1    
    13    6   77 1    
    14    6   78 1    
    15    7    8 1    
    16    8    9 1    
    17    8   79 1    
    18    8   80 1    
    19    9   10 ar   
    20    9   14 ar   
    21   10   11 ar   
    22   10   81 1    
    23   11   12 ar   
    24   11   71 1    
    25   12   13 ar   
    26   12   82 1    
    27   13   14 ar   
    28   13   15 1    
    29   14   83 1    
    30   15   16 1    
    31   15   84 1    
    32   15   85 1    
    33   16   17 1    
    34   17   18 1    
    35   17   86 1    
    36   17   87 1    
    37   18   19 1    
    38   18   37 1    
    39   18   88 1    
    40   19   20 am   BACKBONE|DICT|INTERRES
    41   19   89 1    
    42   20   21 2    
    43   20   22 1    
    44   22   23 1    
    45   22   24 1    
    46   22   90 1    
    47   23   91 1    
    48   23   92 1    
    49   23   93 1    
    50   24   25 am   BACKBONE|DICT|INTERRES
    51   24   94 1    
    52   25   26 2    
    53   25   27 1    
    54   27   28 1    
    55   27   29 1    
    56   27   95 1    
    57   28   96 1    
    58   28   97 1    
    59   28   98 1    
    60   29   30 am   BACKBONE|DICT|INTERRES
    61   29   99 1    
    62   30   31 2    
    63   30   32 1    
    64   32   33 1    
    65   32   34 1    
    66   32  100 1    
    67   33  101 1    
    68   33  102 1    
    69   33  103 1    
    70   34   35 am   BACKBONE|DICT|INTERRES
    71   34  104 1    
    72   35   36 2    
    73   37   38 2    
    74   37   39 am   BACKBONE|DICT|INTERRES
    75   39   40 1    
    76   39  105 1    
    77   40   41 1    
    78   40   42 1    
    79   40  106 1    
    80   41  107 1    
    81   41  108 1    
    82   41  109 1    
    83   42   43 2    
    84   42   44 am   BACKBONE|DICT|INTERRES
    85   44   45 1    
    86   44  110 1    
    87   45   46 1    
    88   45   47 1    
    89   45  111 1    
    90   46  112 1    
    91   46  113 1    
    92   46  114 1    
    93   47   48 2    
    94   47   49 am   BACKBONE|DICT|INTERRES
    95   49   50 1    
    96   49  115 1    
    97   50   51 1    
    98   50   52 1    
    99   50  116 1    
   100   51  117 1    
   101   51  118 1    
   102   51  119 1    
   103   52   53 2    
   104   52   54 am   BACKBONE|DICT|INTERRES
   105   54   55 1    
   106   54  120 1    
   107   55   56 1    
   108   55   57 1    
   109   55  121 1    
   110   56  122 1    
   111   56  123 1    
   112   56  124 1    
   113   57   58 2    
   114   57   59 am   BACKBONE|DICT|INTERRES
   115   59   60 1    
   116   59  125 1    
   117   60   61 1    
   118   60   62 1    
   119   60  126 1    
   120   61  127 1    
   121   61  128 1    
   122   61  129 1    
   123   62   63 2    
   124   62   64 am   BACKBONE|DICT|INTERRES
   125   64   65 1    
   126   64  130 1    
   127   65   66 1    
   128   65   69 1    
   129   65  131 1    
   130   66   67 am   BACKBONE|DICT|INTERRES
   131   66   68 2    
   132   67  132 1    
   133   67  133 1    
   134   69   70 1    
   135   69  134 1    
   136   69  135 1    
   137   70   71 1    
   138   71  136 1    
   139   71  137 1    
@<TRIPOS>SUBSTRUCTURE
     1 UNK         1 GROUP             0       ****    0 ROOT    
