@<TRIPOS>MOLECULE
3R137
137   139    1
SMALL
USER_CHARGES


@<TRIPOS>ATOM
      1 CA         25.0688   -6.1749   -4.4999 C.3       0 UNK        -0.2020 
      2 C          25.3661   -5.2910   -3.2986 C.2       0 UNK         0.4855 
      3 O          24.4397   -4.7331   -2.7091 O.2       0 UNK        -0.5197 
      4 N          26.6520   -5.1505   -2.9434 N.am      1 UNK        -0.4892 
      5 CA         27.1686   -4.3092   -1.8549 C.3       1 UNK         0.0835 
      6 C6         28.7115   -4.4260   -1.7643 C.3       12 UNK        -0.0855 
      7 S7         29.4705   -3.4166   -0.4395 S.3       12 UNK        -0.2931 
      8 C8         31.1332   -3.0830   -1.1117 C.3       12 UNK         0.0378 
      9 C9         31.1108   -2.1659   -2.3292 C.ar      12 UNK        -0.0802 
     10 C10        31.2114   -2.7072   -3.6149 C.ar      12 UNK        -0.0944 
     11 C11        31.2219   -1.8783   -4.7395 C.ar      12 UNK        -0.0787 
     12 C12        31.1263   -0.4953   -4.5711 C.ar      12 UNK        -0.0862 
     13 C13        31.0236    0.0636   -3.2932 C.ar      12 UNK        -0.0733 
     14 C14        31.0239   -0.7774   -2.1738 C.ar      12 UNK        -0.0832 
     15 C15        30.9383    1.5794   -3.1402 C.3       12 UNK         0.0240 
     16 S16        29.4160    2.1793   -2.3235 S.3       12 UNK        -0.2522 
     17 C17        28.0919    1.0896   -2.9451 C.3       12 UNK        -0.0967 
     18 CA         27.9029    1.0877   -4.4837 C.3       5 UNK         0.0660 
     19 N          27.3626   -0.1920   -4.9386 N.am      5 UNK        -0.4015 
     20 C          27.2331   -0.5871   -6.2107 C.2       4 UNK         0.4946 
     21 O          27.6447    0.0545   -7.1771 O.2       4 UNK        -0.5353 
     22 CA         26.4715   -1.9039   -6.4392 C.3       4 UNK         0.0277 
     23 CB         27.4069   -3.1181   -6.3231 C.3       4 UNK        -0.1981 
     24 N          25.3565   -2.0551   -5.5004 N.am      4 UNK        -0.4209 
     25 C          24.2273   -1.3334   -5.5436 C.2       3 UNK         0.4942 
     26 O          23.9847   -0.4952   -6.4105 O.2       3 UNK        -0.5208 
     27 CA         23.2181   -1.5527   -4.4044 C.3       3 UNK         0.0250 
     28 CB         22.3281   -2.7722   -4.6905 C.3       3 UNK        -0.1990 
     29 N          23.8696   -1.7030   -3.1001 N.am      3 UNK        -0.4232 
     30 C          24.5034   -0.7034   -2.4673 C.2       2 UNK         0.4993 
     31 O          24.5685    0.4448   -2.9030 O.2       2 UNK        -0.5286 
     32 CA         25.2381   -1.0387   -1.1577 C.3       2 UNK         0.0209 
     33 CB         24.2946   -0.8744    0.0440 C.3       2 UNK        -0.1931 
     34 N          25.8366   -2.3759   -1.1309 N.am      2 UNK        -0.4546 
     35 C          26.7053   -2.8498   -2.0351 C.2       1 UNK         0.5154 
     36 O          27.0968   -2.2087   -3.0113 O.2       1 UNK        -0.5181 
     37 C          27.0530    2.2741   -4.9812 C.2       5 UNK         0.5014 
     38 O          27.6066    3.2086   -5.5611 O.2       5 UNK        -0.5248 
     39 N          25.7241    2.1937   -4.8059 N.am      6 UNK        -0.4434 
     40 CA         24.7513    3.1735   -5.3028 C.3       6 UNK         0.0363 
     41 CB         23.3547    2.8410   -4.7546 C.3       6 UNK        -0.1936 
     42 C          24.7162    3.2744   -6.8379 C.2       6 UNK         0.5081 
     43 O          24.5748    4.3770   -7.3670 O.2       6 UNK        -0.5248 
     44 N          24.8778    2.1355   -7.5260 N.am      7 UNK        -0.4718 
     45 CA         25.0113    2.0526   -8.9846 C.3       7 UNK         0.0273 
     46 CB         24.7636    0.6015   -9.4283 C.3       7 UNK        -0.1935 
     47 C          26.3722    2.5479   -9.5146 C.2       7 UNK         0.5018 
     48 O          26.5051    2.7220  -10.7268 O.2       7 UNK        -0.5186 
     49 N          27.3467    2.7525   -8.6149 N.am      8 UNK        -0.4240 
     50 CA         28.7355    3.1481   -8.8642 C.3       8 UNK         0.0235 
     51 CB         28.8092    4.5803   -9.4359 C.3       8 UNK        -0.2000 
     52 C          29.5000    2.1113   -9.7083 C.2       8 UNK         0.4941 
     53 O          30.1897    2.4792  -10.6626 O.2       8 UNK        -0.5273 
     54 N          29.3575    0.8282   -9.3446 N.am      9 UNK        -0.4262 
     55 CA         30.0725   -0.2945   -9.9555 C.3       9 UNK         0.0264 
     56 CB         29.4875   -1.6122   -9.4265 C.3       9 UNK        -0.1955 
     57 C          31.5896   -0.2208   -9.7005 C.2       9 UNK         0.5031 
     58 O          32.0203    0.2673   -8.6511 O.2       9 UNK        -0.5390 
     59 N          32.3723   -0.7160  -10.6667 N.am      10 UNK        -0.4204 
     60 CA         33.8333   -0.6102  -10.7265 C.3       10 UNK         0.0237 
     61 CB         34.2784   -0.7824  -12.1920 C.3       10 UNK        -0.1985 
     62 C          34.5756   -1.5638   -9.7663 C.2       10 UNK         0.4970 
     63 O          35.4179   -2.3472  -10.2097 O.2       10 UNK        -0.4914 
     64 N          34.2745   -1.4656   -8.4670 N.am      11 UNK        -0.4285 
     65 CA         35.0204   -2.1342   -7.3863 C.3       11 UNK         0.1007 
     66 C          36.3771   -1.4521   -7.0389 C.2       11 UNK         0.5703 
     67 N          36.6624   -0.2447   -7.5140 N.am      11 UNK        -0.7361 
     68 O          37.1944   -2.0380   -6.3325 O.2       11 UNK        -0.4986 
     69 C69        34.1550   -2.3219   -6.1146 C.3       12 UNK        -0.0947 
     70 S70        32.7981   -3.5127   -6.3693 S.3       12 UNK        -0.2240 
     71 C71        31.3265   -2.4676   -6.1402 C.3       12 UNK         0.0194 
     72 H72        24.6191   -5.5850   -5.2980 H         1 UNK         0.0906 
     73 H73        25.9688   -6.6472   -4.8933 H         1 UNK         0.0906 
     74 H74        24.3680   -6.9615   -4.2214 H         1 UNK         0.0906 
     75 H75        27.3570   -5.6315   -3.4834 H         1 UNK         0.3140 
     76 H76        26.7483   -4.6934   -0.9232 H         1 UNK         0.1085 
     77 H77        29.1463   -4.1525   -2.7247 H         1 UNK         0.0836 
     78 H78        28.9949   -5.4656   -1.5930 H         1 UNK         0.0836 
     79 H79        31.6182   -4.0299   -1.3542 H         1 UNK         0.0731 
     80 H80        31.7408   -2.6267   -0.3288 H         1 UNK         0.0731 
     81 H81        31.2908   -3.7779   -3.7444 H         1 UNK         0.1312 
     82 H82        31.1343    0.1476   -5.4413 H         1 UNK         0.1406 
     83 H83        30.9494   -0.3504   -1.1828 H         1 UNK         0.1631 
     84 H84        31.0156    2.0676   -4.1129 H         1 UNK         0.0717 
     85 H85        31.7989    1.9239   -2.5654 H         1 UNK         0.0717 
     86 H86        28.3292    0.0853   -2.5919 H         1 UNK         0.0934 
     87 H87        27.1639    1.3547   -2.4361 H         1 UNK         0.0934 
     88 H88        28.8781    1.1822   -4.9611 H         1 UNK         0.0739 
     89 H89        27.0860   -0.8484   -4.2107 H         1 UNK         0.3093 
     90 H90        26.0627   -1.8850   -7.4514 H         1 UNK         0.0818 
     91 H91        26.8593   -4.0540   -6.4337 H         1 UNK         0.0819 
     92 H92        28.1630   -3.0987   -7.1065 H         1 UNK         0.0819 
     93 H93        27.9281   -3.1451   -5.3653 H         1 UNK         0.0819 
     94 H94        25.5107   -2.6605   -4.7065 H         1 UNK         0.3041 
     95 H95        22.5755   -0.6706   -4.3592 H         1 UNK         0.0784 
     96 H96        21.8017   -2.6550   -5.6388 H         1 UNK         0.0793 
     97 H97        22.9068   -3.6940   -4.7517 H         1 UNK         0.0793 
     98 H98        21.5729   -2.9023   -3.9152 H         1 UNK         0.0793 
     99 H99        23.9022   -2.6362   -2.7030 H         1 UNK         0.3024 
    100 H100       26.0524   -0.3197   -1.0514 H         1 UNK         0.1171 
    101 H101       24.8260   -1.0028    0.9873 H         1 UNK         0.0786 
    102 H102       23.8511    0.1224    0.0581 H         1 UNK         0.0786 
    103 H103       23.4762   -1.5951    0.0171 H         1 UNK         0.0786 
    104 H104       25.5410   -2.9842   -0.3808 H         1 UNK         0.2977 
    105 H105       25.3430    1.4213   -4.2612 H         1 UNK         0.3127 
    106 H106       25.0444    4.1519   -4.9165 H         1 UNK         0.0770 
    107 H107       23.0216    1.8530   -5.0746 H         1 UNK         0.0814 
    108 H108       22.6154    3.5643   -5.1011 H         1 UNK         0.0814 
    109 H109       23.3416    2.8613   -3.6647 H         1 UNK         0.0814 
    110 H110       24.9048    1.2571   -7.0177 H         1 UNK         0.2983 
    111 H111       24.2416    2.6835   -9.4344 H         1 UNK         0.0947 
    112 H112       25.5131   -0.0758   -9.0187 H         1 UNK         0.0806 
    113 H113       24.8020    0.5111  -10.5146 H         1 UNK         0.0806 
    114 H114       23.7824    0.2497   -9.1092 H         1 UNK         0.0806 
    115 H115       27.1282    2.5586   -7.6449 H         1 UNK         0.3000 
    116 H116       29.2246    3.1598   -7.8889 H         1 UNK         0.0850 
    117 H117       28.2790    5.2880   -8.7984 H         1 UNK         0.0810 
    118 H118       28.3799    4.6419  -10.4363 H         1 UNK         0.0810 
    119 H119       29.8435    4.9189   -9.5055 H         1 UNK         0.0810 
    120 H120       28.7631    0.6089   -8.5462 H         1 UNK         0.3040 
    121 H121       29.9006   -0.2477  -11.0329 H         1 UNK         0.0766 
    122 H122       30.0122   -2.4758   -9.8373 H         1 UNK         0.0812 
    123 H123       28.4352   -1.7122   -9.6933 H         1 UNK         0.0812 
    124 H124       29.5587   -1.6679   -8.3421 H         1 UNK         0.0812 
    125 H125       31.9295   -1.1451  -11.4668 H         1 UNK         0.3205 
    126 H126       34.1067    0.4032  -10.4244 H         1 UNK         0.0754 
    127 H127       35.3565   -0.6488  -12.2935 H         1 UNK         0.0769 
    128 H128       33.8040   -0.0456  -12.8408 H         1 UNK         0.0769 
    129 H129       34.0347   -1.7743  -12.5748 H         1 UNK         0.0769 
    130 H130       33.5458   -0.8113   -8.1956 H         1 UNK         0.2981 
    131 H131       35.2884   -3.1319   -7.7398 H         1 UNK         0.0541 
    132 H132       37.5477    0.1783   -7.2835 H         1 UNK         0.3459 
    133 H133       36.0000    0.2517   -8.0870 H         1 UNK         0.3459 
    134 H134       34.7542   -2.7095   -5.2886 H         1 UNK         0.0612 
    135 H135       33.7637   -1.3609   -5.7773 H         1 UNK         0.0612 
    136 H136       31.3481   -1.6775   -6.8899 H         1 UNK         0.0624 
    137 H137       30.4391   -3.0677   -6.3388 H         1 UNK         0.0624 
@<TRIPOS>BOND
     1    1    2 1    
     2    1   72 1    
     3    1   73 1    
     4    1   74 1    
     5    2    3 2    
     6    2    4 am   BACKBONE|DICT|INTERRES
     7    4    5 1    
     8    4   75 1    
     9    5    6 1    
    10    5   35 1    
    11    5   76 1    
    12    6    7 1    
    13    6   77 1    
    14    6   78 1    
    15    7    8 1    
    16    8    9 1    
    17    8   79 1    
    18    8   80 1    
    19    9   10 ar   
    20    9   14 ar   
    21   10   11 ar   
    22   10   81 1    
    23   11   12 ar   
    24   11   71 1    
    25   12   13 ar   
    26   12   82 1    
    27   13   14 ar   
    28   13   15 1    
    29   14   83 1    
    30   15   16 1    
    31   15   84 1    
    32   15   85 1    
    33   16   17 1    
    34   17   18 1    
    35   17   86 1    
    36   17   87 1    
    37   18   19 1    
    38   18   37 1    
    39   18   88 1    
    40   19   20 am   BACKBONE|DICT|INTERRES
    41   19   89 1    
    42   20   21 2    
    43   20   22 1    
    44   22   23 1    
    45   22   24 1    
    46   22   90 1    
    47   23   91 1    
    48   23   92 1    
    49   23   93 1    
    50   24   25 am   BACKBONE|DICT|INTERRES
    51   24   94 1    
    52   25   26 2    
    53   25   27 1    
    54   27   28 1    
    55   27   29 1    
    56   27   95 1    
    57   28   96 1    
    58   28   97 1    
    59   28   98 1    
    60   29   30 am   BACKBONE|DICT|INTERRES
    61   29   99 1    
    62   30   31 2    
    63   30   32 1    
    64   32   33 1    
    65   32   34 1    
    66   32  100 1    
    67   33  101 1    
    68   33  102 1    
    69   33  103 1    
    70   34   35 am   BACKBONE|DICT|INTERRES
    71   34  104 1    
    72   35   36 2    
    73   37   38 2    
    74   37   39 am   BACKBONE|DICT|INTERRES
    75   39   40 1    
    76   39  105 1    
    77   40   41 1    
    78   40   42 1    
    79   40  106 1    
    80   41  107 1    
    81   41  108 1    
    82   41  109 1    
    83   42   43 2    
    84   42   44 am   BACKBONE|DICT|INTERRES
    85   44   45 1    
    86   44  110 1    
    87   45   46 1    
    88   45   47 1    
    89   45  111 1    
    90   46  112 1    
    91   46  113 1    
    92   46  114 1    
    93   47   48 2    
    94   47   49 am   BACKBONE|DICT|INTERRES
    95   49   50 1    
    96   49  115 1    
    97   50   51 1    
    98   50   52 1    
    99   50  116 1    
   100   51  117 1    
   101   51  118 1    
   102   51  119 1    
   103   52   53 2    
   104   52   54 am   BACKBONE|DICT|INTERRES
   105   54   55 1    
   106   54  120 1    
   107   55   56 1    
   108   55   57 1    
   109   55  121 1    
   110   56  122 1    
   111   56  123 1    
   112   56  124 1    
   113   57   58 2    
   114   57   59 am   BACKBONE|DICT|INTERRES
   115   59   60 1    
   116   59  125 1    
   117   60   61 1    
   118   60   62 1    
   119   60  126 1    
   120   61  127 1    
   121   61  128 1    
   122   61  129 1    
   123   62   63 2    
   124   62   64 am   BACKBONE|DICT|INTERRES
   125   64   65 1    
   126   64  130 1    
   127   65   66 1    
   128   65   69 1    
   129   65  131 1    
   130   66   67 am   BACKBONE|DICT|INTERRES
   131   66   68 2    
   132   67  132 1    
   133   67  133 1    
   134   69   70 1    
   135   69  134 1    
   136   69  135 1    
   137   70   71 1    
   138   71  136 1    
   139   71  137 1    
@<TRIPOS>SUBSTRUCTURE
     1 UNK         1 GROUP             0       ****    0 ROOT    
