@<TRIPOS>MOLECULE
3R137
137   139    1
SMALL
USER_CHARGES


@<TRIPOS>ATOM
      1 CA         27.5390   -0.3315    2.7022 C.3       0 UNK        -0.2020 
      2 C          27.6661   -0.2088    1.1914 C.2       0 UNK         0.4855 
      3 O          27.2305    0.7895    0.6180 O.2       0 UNK        -0.5197 
      4 N          28.2514   -1.2207    0.5374 N.am      1 UNK        -0.4892 
      5 CA         28.4674   -1.2679   -0.9155 C.3       1 UNK         0.0835 
      6 C6         29.6032   -2.2552   -1.2835 C.3       12 UNK        -0.0855 
      7 S7         29.2148   -4.0101   -0.9265 S.3       12 UNK        -0.2931 
      8 C8         30.5435   -4.8923   -1.8099 C.3       12 UNK         0.0378 
      9 C9         30.6270   -4.5067   -3.2810 C.ar      12 UNK        -0.0802 
     10 C10        31.6723   -3.6903   -3.7249 C.ar      12 UNK        -0.0944 
     11 C11        31.7590   -3.3145   -5.0665 C.ar      12 UNK        -0.0787 
     12 C12        30.7874   -3.7634   -5.9640 C.ar      12 UNK        -0.0862 
     13 C13        29.7379   -4.5860   -5.5428 C.ar      12 UNK        -0.0733 
     14 C14        29.6680   -4.9607   -4.1945 C.ar      12 UNK        -0.0832 
     15 C15        28.7421   -5.0927   -6.5874 C.3       12 UNK         0.0240 
     16 S16        27.0193   -5.2990   -6.0168 S.3       12 UNK        -0.2522 
     17 C17        26.5486   -3.6309   -5.4555 C.3       12 UNK        -0.0967 
     18 CA         26.3773   -2.5884   -6.5950 C.3       5 UNK         0.0660 
     19 N          25.1746   -1.7624   -6.4185 N.am      5 UNK        -0.4015 
     20 C          24.7247   -0.8633   -7.3091 C.2       4 UNK         0.4946 
     21 O          25.2651   -0.6383   -8.3901 O.2       4 UNK        -0.5353 
     22 CA         23.4681   -0.0546   -6.9463 C.3       4 UNK         0.0277 
     23 CB         22.2132   -0.7386   -7.5113 C.3       4 UNK        -0.1981 
     24 N          23.2894    0.1731   -5.5142 N.am      4 UNK        -0.4209 
     25 C          24.1542    0.7829   -4.6920 C.2       3 UNK         0.4942 
     26 O          25.2374    1.2499   -5.0490 O.2       3 UNK        -0.5208 
     27 CA         23.7369    0.8638   -3.2117 C.3       3 UNK         0.0250 
     28 CB         22.2087    0.9756   -3.0129 C.3       3 UNK        -0.1990 
     29 N          24.2688   -0.2399   -2.4043 N.am      3 UNK        -0.4232 
     30 C          24.1975   -1.5605   -2.6422 C.2       2 UNK         0.4993 
     31 O          23.6820   -2.0626   -3.6440 O.2       2 UNK        -0.5286 
     32 CA         24.8302   -2.4666   -1.5657 C.3       2 UNK         0.0209 
     33 CB         24.9870   -3.9378   -2.0036 C.3       2 UNK        -0.1931 
     34 N          26.1084   -1.9757   -1.0349 N.am      2 UNK        -0.4546 
     35 C          27.1829   -1.5585   -1.7260 C.2       1 UNK         0.5154 
     36 O          27.2013   -1.4159   -2.9495 O.2       1 UNK        -0.5181 
     37 C          27.6340   -1.7118   -6.7663 C.2       5 UNK         0.5014 
     38 O          28.2786   -1.7593   -7.8179 O.2       5 UNK        -0.5248 
     39 N          27.9267   -0.8900   -5.7477 N.am      6 UNK        -0.4434 
     40 CA         29.0476    0.0470   -5.7569 C.3       6 UNK         0.0363 
     41 CB         29.2601    0.6399   -4.3569 C.3       6 UNK        -0.1936 
     42 C          28.9115    1.1624   -6.7996 C.2       6 UNK         0.5081 
     43 O          29.9307    1.5955   -7.3363 O.2       6 UNK        -0.5248 
     44 N          27.6748    1.5949   -7.0849 N.am      7 UNK        -0.4718 
     45 CA         27.3767    2.5866   -8.1201 C.3       7 UNK         0.0273 
     46 CB         25.9169    3.0485   -8.0022 C.3       7 UNK        -0.1935 
     47 C          27.6754    2.0690   -9.5372 C.2       7 UNK         0.5018 
     48 O          28.2927    2.7924  -10.3187 O.2       7 UNK        -0.5186 
     49 N          27.2603    0.8285   -9.8369 N.am      8 UNK        -0.4240 
     50 CA         27.5098    0.1602  -11.1171 C.3       8 UNK         0.0235 
     51 CB         26.6499   -1.1092  -11.2238 C.3       8 UNK        -0.2000 
     52 C          28.9929   -0.1755  -11.3308 C.2       8 UNK         0.4941 
     53 O          29.5008    0.0188  -12.4359 O.2       8 UNK        -0.5273 
     54 N          29.6632   -0.6578  -10.2745 N.am      9 UNK        -0.4262 
     55 CA         31.0976   -0.9604  -10.2879 C.3       9 UNK         0.0264 
     56 CB         31.4267   -1.8696   -9.0981 C.3       9 UNK        -0.1955 
     57 C          31.9945    0.2900  -10.2649 C.2       9 UNK         0.5031 
     58 O          33.1555    0.1971  -10.6656 O.2       9 UNK        -0.5390 
     59 N          31.4525    1.4155   -9.7775 N.am      10 UNK        -0.4204 
     60 CA         32.1100    2.7049   -9.5421 C.3       10 UNK         0.0237 
     61 CB         32.5953    3.3373  -10.8643 C.3       10 UNK        -0.1985 
     62 C          33.2074    2.6343   -8.4603 C.2       10 UNK         0.4970 
     63 O          34.1669    3.4060   -8.5175 O.2       10 UNK        -0.4914 
     64 N          33.0443    1.7246   -7.4889 N.am      11 UNK        -0.4285 
     65 CA         33.9425    1.5686   -6.3336 C.3       11 UNK         0.1007 
     66 C          33.6022    2.5061   -5.1379 C.2       11 UNK         0.5703 
     67 N          32.4731    3.2070   -5.1437 N.am      11 UNK        -0.7361 
     68 O          34.3879    2.6147   -4.1993 O.2       11 UNK        -0.4986 
     69 C69        34.0990    0.0819   -5.9111 C.3       12 UNK        -0.0947 
     70 S70        32.5726   -0.6822   -5.2711 S.3       12 UNK        -0.2240 
     71 C71        32.9131   -2.4451   -5.5465 C.3       12 UNK         0.0194 
     72 H72        27.9588   -1.2665    3.0729 H         1 UNK         0.0906 
     73 H73        28.0615    0.4910    3.1900 H         1 UNK         0.0906 
     74 H74        26.4904   -0.2903    2.9957 H         1 UNK         0.0906 
     75 H75        28.5839   -2.0275    1.0486 H         1 UNK         0.3140 
     76 H76        28.7931   -0.2727   -1.2273 H         1 UNK         0.1085 
     77 H77        29.8329   -2.1457   -2.3438 H         1 UNK         0.0836 
     78 H78        30.5194   -1.9867   -0.7553 H         1 UNK         0.0836 
     79 H79        31.4915   -4.6973   -1.3060 H         1 UNK         0.0731 
     80 H80        30.3710   -5.9663   -1.7266 H         1 UNK         0.0731 
     81 H81        32.4183   -3.3392   -3.0249 H         1 UNK         0.1312 
     82 H82        30.8559   -3.4843   -7.0029 H         1 UNK         0.1406 
     83 H83        28.8679   -5.6019   -3.8508 H         1 UNK         0.1631 
     84 H84        29.0959   -6.0597   -6.9467 H         1 UNK         0.0717 
     85 H85        28.7355   -4.4353   -7.4578 H         1 UNK         0.0717 
     86 H86        27.2467   -3.3085   -4.6817 H         1 UNK         0.0934 
     87 H87        25.5956   -3.7626   -4.9428 H         1 UNK         0.0934 
     88 H88        26.2314   -3.1235   -7.5359 H         1 UNK         0.0739 
     89 H89        24.6711   -1.8638   -5.5434 H         1 UNK         0.3093 
     90 H90        23.5581    0.9244   -7.4177 H         1 UNK         0.0818 
     91 H91        21.3229   -0.1294   -7.3546 H         1 UNK         0.0819 
     92 H92        22.3076   -0.8994   -8.5864 H         1 UNK         0.0819 
     93 H93        22.0415   -1.7121   -7.0499 H         1 UNK         0.0819 
     94 H94        22.4597   -0.2242   -5.0973 H         1 UNK         0.3041 
     95 H95        24.1859    1.7785   -2.8211 H         1 UNK         0.0784 
     96 H96        21.7870    1.7703   -3.6303 H         1 UNK         0.0793 
     97 H97        21.6874    0.0499   -3.2595 H         1 UNK         0.0793 
     98 H98        21.9691    1.2166   -1.9771 H         1 UNK         0.0793 
     99 H99        24.7769    0.0433   -1.5777 H         1 UNK         0.3024 
    100 H100       24.1216   -2.4533   -0.7358 H         1 UNK         0.1171 
    101 H101       25.2097   -4.5749   -1.1477 H         1 UNK         0.0786 
    102 H102       25.8003   -4.0626   -2.7160 H         1 UNK         0.0786 
    103 H103       24.0761   -4.3262   -2.4608 H         1 UNK         0.0786 
    104 H104       26.2163   -2.0302   -0.0319 H         1 UNK         0.2977 
    105 H105       27.3844   -0.9407   -4.8892 H         1 UNK         0.3127 
    106 H106       29.9306   -0.5294   -6.0278 H         1 UNK         0.0770 
    107 H107       28.3585    1.1266   -3.9826 H         1 UNK         0.0814 
    108 H108       30.0602    1.3817   -4.3619 H         1 UNK         0.0814 
    109 H109       29.5500   -0.1339   -3.6483 H         1 UNK         0.0814 
    110 H110       26.8929    1.2157   -6.5628 H         1 UNK         0.2983 
    111 H111       28.0193    3.4519   -7.9416 H         1 UNK         0.0947 
    112 H112       25.7116    3.8649   -8.6957 H         1 UNK         0.0806 
    113 H113       25.6908    3.4088   -6.9983 H         1 UNK         0.0806 
    114 H114       25.2220    2.2437   -8.2363 H         1 UNK         0.0806 
    115 H115       26.7174    0.3049   -9.1525 H         1 UNK         0.3000 
    116 H116       27.2070    0.8422  -11.9147 H         1 UNK         0.0850 
    117 H117       26.8206   -1.6207  -12.1720 H         1 UNK         0.0810 
    118 H118       25.5872   -0.8721  -11.1698 H         1 UNK         0.0810 
    119 H119       26.8743   -1.8162  -10.4237 H         1 UNK         0.0810 
    120 H120       29.1556   -0.8506   -9.4144 H         1 UNK         0.3040 
    121 H121       31.3252   -1.5075  -11.2054 H         1 UNK         0.0766 
    122 H122       32.4879   -2.1211   -9.0752 H         1 UNK         0.0812 
    123 H123       31.1801   -1.3916   -8.1490 H         1 UNK         0.0812 
    124 H124       30.8715   -2.8049   -9.1649 H         1 UNK         0.0812 
    125 H125       30.5104    1.3555   -9.4088 H         1 UNK         0.3205 
    126 H126       31.3361    3.3577   -9.1353 H         1 UNK         0.0754 
    127 H127       32.9351    4.3616  -10.7065 H         1 UNK         0.0769 
    128 H128       31.7937    3.3734  -11.6021 H         1 UNK         0.0769 
    129 H129       33.4277    2.7830  -11.2987 H         1 UNK         0.0769 
    130 H130       32.1903    1.1832   -7.4696 H         1 UNK         0.2981 
    131 H131       34.9380    1.8834   -6.6517 H         1 UNK         0.0541 
    132 H132       31.8181    3.1117   -5.9037 H         1 UNK         0.3459 
    133 H133       32.2681    3.8186   -4.3700 H         1 UNK         0.3459 
    134 H134       34.8741   -0.0165   -5.1491 H         1 UNK         0.0612 
    135 H135       34.4484   -0.4987   -6.7663 H         1 UNK         0.0612 
    136 H136       33.1014   -2.6168   -6.6071 H         1 UNK         0.0624 
    137 H137       33.8287   -2.7205   -5.0209 H         1 UNK         0.0624 
@<TRIPOS>BOND
     1    1    2 1    
     2    1   72 1    
     3    1   73 1    
     4    1   74 1    
     5    2    3 2    
     6    2    4 am   BACKBONE|DICT|INTERRES
     7    4    5 1    
     8    4   75 1    
     9    5    6 1    
    10    5   35 1    
    11    5   76 1    
    12    6    7 1    
    13    6   77 1    
    14    6   78 1    
    15    7    8 1    
    16    8    9 1    
    17    8   79 1    
    18    8   80 1    
    19    9   10 ar   
    20    9   14 ar   
    21   10   11 ar   
    22   10   81 1    
    23   11   12 ar   
    24   11   71 1    
    25   12   13 ar   
    26   12   82 1    
    27   13   14 ar   
    28   13   15 1    
    29   14   83 1    
    30   15   16 1    
    31   15   84 1    
    32   15   85 1    
    33   16   17 1    
    34   17   18 1    
    35   17   86 1    
    36   17   87 1    
    37   18   19 1    
    38   18   37 1    
    39   18   88 1    
    40   19   20 am   BACKBONE|DICT|INTERRES
    41   19   89 1    
    42   20   21 2    
    43   20   22 1    
    44   22   23 1    
    45   22   24 1    
    46   22   90 1    
    47   23   91 1    
    48   23   92 1    
    49   23   93 1    
    50   24   25 am   BACKBONE|DICT|INTERRES
    51   24   94 1    
    52   25   26 2    
    53   25   27 1    
    54   27   28 1    
    55   27   29 1    
    56   27   95 1    
    57   28   96 1    
    58   28   97 1    
    59   28   98 1    
    60   29   30 am   BACKBONE|DICT|INTERRES
    61   29   99 1    
    62   30   31 2    
    63   30   32 1    
    64   32   33 1    
    65   32   34 1    
    66   32  100 1    
    67   33  101 1    
    68   33  102 1    
    69   33  103 1    
    70   34   35 am   BACKBONE|DICT|INTERRES
    71   34  104 1    
    72   35   36 2    
    73   37   38 2    
    74   37   39 am   BACKBONE|DICT|INTERRES
    75   39   40 1    
    76   39  105 1    
    77   40   41 1    
    78   40   42 1    
    79   40  106 1    
    80   41  107 1    
    81   41  108 1    
    82   41  109 1    
    83   42   43 2    
    84   42   44 am   BACKBONE|DICT|INTERRES
    85   44   45 1    
    86   44  110 1    
    87   45   46 1    
    88   45   47 1    
    89   45  111 1    
    90   46  112 1    
    91   46  113 1    
    92   46  114 1    
    93   47   48 2    
    94   47   49 am   BACKBONE|DICT|INTERRES
    95   49   50 1    
    96   49  115 1    
    97   50   51 1    
    98   50   52 1    
    99   50  116 1    
   100   51  117 1    
   101   51  118 1    
   102   51  119 1    
   103   52   53 2    
   104   52   54 am   BACKBONE|DICT|INTERRES
   105   54   55 1    
   106   54  120 1    
   107   55   56 1    
   108   55   57 1    
   109   55  121 1    
   110   56  122 1    
   111   56  123 1    
   112   56  124 1    
   113   57   58 2    
   114   57   59 am   BACKBONE|DICT|INTERRES
   115   59   60 1    
   116   59  125 1    
   117   60   61 1    
   118   60   62 1    
   119   60  126 1    
   120   61  127 1    
   121   61  128 1    
   122   61  129 1    
   123   62   63 2    
   124   62   64 am   BACKBONE|DICT|INTERRES
   125   64   65 1    
   126   64  130 1    
   127   65   66 1    
   128   65   69 1    
   129   65  131 1    
   130   66   67 am   BACKBONE|DICT|INTERRES
   131   66   68 2    
   132   67  132 1    
   133   67  133 1    
   134   69   70 1    
   135   69  134 1    
   136   69  135 1    
   137   70   71 1    
   138   71  136 1    
   139   71  137 1    
@<TRIPOS>SUBSTRUCTURE
     1 UNK         1 GROUP             0       ****    0 ROOT    
