@<TRIPOS>MOLECULE
3R137
137   139    1
SMALL
USER_CHARGES


@<TRIPOS>ATOM
      1 CA         27.8761   -6.0442   -6.4115 C.3       0 UNK        -0.2020 
      2 C          27.5064   -5.5255   -5.0310 C.2       0 UNK         0.4855 
      3 O          26.3312   -5.5533   -4.6636 O.2       0 UNK        -0.5197 
      4 N          28.4942   -5.0527   -4.2600 N.am      1 UNK        -0.4892 
      5 CA         28.2895   -4.5145   -2.9122 C.3       1 UNK         0.0835 
      6 C6         29.6084   -4.4845   -2.1036 C.3       12 UNK        -0.0855 
      7 S7         29.3215   -4.1474   -0.3240 S.3       12 UNK        -0.2931 
      8 C8         30.8729   -3.3680    0.2348 C.3       12 UNK         0.0378 
      9 C9         31.3027   -2.2052   -0.6481 C.ar      12 UNK        -0.0802 
     10 C10        32.3599   -2.3797   -1.5415 C.ar      12 UNK        -0.0944 
     11 C11        32.7444   -1.3537   -2.4091 C.ar      12 UNK        -0.0787 
     12 C12        32.0949   -0.1170   -2.3277 C.ar      12 UNK        -0.0862 
     13 C13        31.0493    0.0850   -1.4164 C.ar      12 UNK        -0.0733 
     14 C14        30.6519   -0.9697   -0.5855 C.ar      12 UNK        -0.0832 
     15 C15        30.3699    1.4471   -1.2889 C.3       12 UNK         0.0240 
     16 S16        29.8924    2.1931   -2.8840 S.3       12 UNK        -0.2522 
     17 C17        28.5772    1.0606   -3.4326 C.3       12 UNK        -0.0967 
     18 CA         28.2411    1.2446   -4.9341 C.3       5 UNK         0.0660 
     19 N          27.7812   -0.0046   -5.5429 N.am      5 UNK        -0.4015 
     20 C          27.5373   -0.1801   -6.8486 C.2       4 UNK         0.4946 
     21 O          27.6963    0.6887   -7.7046 O.2       4 UNK        -0.5353 
     22 CA         26.9804   -1.5468   -7.2670 C.3       4 UNK         0.0277 
     23 CB         28.1106   -2.5788   -7.4008 C.3       4 UNK        -0.1981 
     24 N          25.9596   -2.0284   -6.3337 N.am      4 UNK        -0.4209 
     25 C          24.7492   -1.4677   -6.1914 C.2       3 UNK         0.4942 
     26 O          24.3401   -0.5324   -6.8788 O.2       3 UNK        -0.5208 
     27 CA         23.8655   -2.0124   -5.0574 C.3       3 UNK         0.0250 
     28 CB         23.2075   -3.3399   -5.4665 C.3       3 UNK        -0.1990 
     29 N          24.6051   -2.1926   -3.8059 N.am      3 UNK        -0.4232 
     30 C          25.1678   -1.1961   -3.1062 C.2       2 UNK         0.4993 
     31 O          25.0889   -0.0096   -3.4167 O.2       2 UNK        -0.5286 
     32 CA         26.0061   -1.5844   -1.8790 C.3       2 UNK         0.0209 
     33 CB         25.1292   -1.6330   -0.6184 C.3       2 UNK        -0.1931 
     34 N          26.7219   -2.8535   -2.0275 N.am      2 UNK        -0.4546 
     35 C          27.6198   -3.1270   -2.9845 C.2       1 UNK         0.5154 
     36 O          27.9179   -2.3403   -3.8879 O.2       1 UNK        -0.5181 
     37 C          27.2559    2.4099   -5.1776 C.2       5 UNK         0.5014 
     38 O          27.6775    3.4726   -5.6358 O.2       5 UNK        -0.5248 
     39 N          25.9579    2.1767   -4.9268 N.am      6 UNK        -0.4434 
     40 CA         24.8691    3.1285   -5.1740 C.3       6 UNK         0.0363 
     41 CB         23.5623    2.5817   -4.5784 C.3       6 UNK        -0.1936 
     42 C          24.6758    3.4680   -6.6620 C.2       6 UNK         0.5081 
     43 O          24.3459    4.6102   -6.9819 O.2       6 UNK        -0.5248 
     44 N          24.9075    2.4876   -7.5455 N.am      7 UNK        -0.4718 
     45 CA         24.8934    2.6579   -9.0019 C.3       7 UNK         0.0273 
     46 CB         24.7140    1.2801   -9.6618 C.3       7 UNK        -0.1935 
     47 C          26.1511    3.3581   -9.5552 C.2       7 UNK         0.5018 
     48 O          26.1677    3.6898  -10.7415 O.2       7 UNK        -0.5186 
     49 N          27.1762    3.5486   -8.7094 N.am      8 UNK        -0.4240 
     50 CA         28.5137    4.0660   -9.0198 C.3       8 UNK         0.0235 
     51 CB         28.4524    5.5373   -9.4836 C.3       8 UNK        -0.2000 
     52 C          29.2981    3.1541   -9.9850 C.2       8 UNK         0.4941 
     53 O          30.0839    3.6474  -10.7974 O.2       8 UNK        -0.5273 
     54 N          29.0773    1.8384   -9.8726 N.am      9 UNK        -0.4262 
     55 CA         29.8100    0.7988  -10.5896 C.3       9 UNK         0.0264 
     56 CB         28.8769   -0.4051  -10.8024 C.3       9 UNK        -0.1955 
     57 C          31.0677    0.3973   -9.8023 C.2       9 UNK         0.5031 
     58 O          31.1974    0.7237   -8.6180 O.2       9 UNK        -0.5390 
     59 N          31.9769   -0.3193  -10.4735 N.am      10 UNK        -0.4204 
     60 CA         33.2706   -0.7623   -9.9468 C.3       10 UNK         0.0237 
     61 CB         34.1904   -1.1185  -11.1307 C.3       10 UNK        -0.1985 
     62 C          33.1496   -1.9130   -8.9259 C.2       10 UNK         0.4970 
     63 O          33.6215   -3.0197   -9.1908 O.2       10 UNK        -0.4914 
     64 N          32.5185   -1.6291   -7.7799 N.am      11 UNK        -0.4285 
     65 CA         32.3986   -2.4791   -6.5797 C.3       11 UNK         0.1007 
     66 C          31.5031   -3.7496   -6.7245 C.2       11 UNK         0.5703 
     67 N          31.2802   -4.2709   -7.9234 N.am      11 UNK        -0.7361 
     68 O          30.9621   -4.2452   -5.7378 O.2       11 UNK        -0.4986 
     69 C69        33.8013   -2.7990   -5.9870 C.3       12 UNK        -0.0947 
     70 S70        33.7873   -3.2147   -4.2162 S.3       12 UNK        -0.2240 
     71 C71        33.8690   -1.5715   -3.4184 C.3       12 UNK         0.0194 
     72 H72        27.1533   -5.7015   -7.1511 H         1 UNK         0.0906 
     73 H73        28.8645   -5.7068   -6.7191 H         1 UNK         0.0906 
     74 H74        27.8709   -7.1337   -6.4138 H         1 UNK         0.0906 
     75 H75        29.4273   -4.9427   -4.6492 H         1 UNK         0.3140 
     76 H76        27.6042   -5.1937   -2.3993 H         1 UNK         0.1085 
     77 H77        30.1147   -5.4482   -2.1781 H         1 UNK         0.0836 
     78 H78        30.2876   -3.7549   -2.5440 H         1 UNK         0.0836 
     79 H79        31.6530   -4.1300    0.2746 H         1 UNK         0.0731 
     80 H80        30.7424   -3.0161    1.2592 H         1 UNK         0.0731 
     81 H81        32.8653   -3.3347   -1.5815 H         1 UNK         0.1312 
     82 H82        32.4035    0.6936   -2.9736 H         1 UNK         0.1406 
     83 H83        29.8399   -0.8327    0.1160 H         1 UNK         0.1631 
     84 H84        31.0559    2.1265   -0.7815 H         1 UNK         0.0717 
     85 H85        29.4819    1.3812   -0.6582 H         1 UNK         0.0717 
     86 H86        28.9354    0.0456   -3.2537 H         1 UNK         0.0934 
     87 H87        27.6974    1.1853   -2.7987 H         1 UNK         0.0934 
     88 H88        29.1645    1.4942   -5.4624 H         1 UNK         0.0739 
     89 H89        27.6774   -0.8045   -4.9220 H         1 UNK         0.3093 
     90 H90        26.5153   -1.4252   -8.2476 H         1 UNK         0.0818 
     91 H91        27.7565   -3.4867   -7.8866 H         1 UNK         0.0819 
     92 H92        28.9324   -2.1934   -8.0051 H         1 UNK         0.0819 
     93 H93        28.5291   -2.8516   -6.4322 H         1 UNK         0.0819 
     94 H94        26.2329   -2.7582   -5.6905 H         1 UNK         0.3041 
     95 H95        23.0753   -1.2807   -4.8750 H         1 UNK         0.0784 
     96 H96        22.6459   -3.2266   -6.3949 H         1 UNK         0.0793 
     97 H97        23.9454   -4.1278   -5.6251 H         1 UNK         0.0793 
     98 H98        22.5069   -3.6856   -4.7062 H         1 UNK         0.0793 
     99 H99        24.7378   -3.1404   -3.4825 H         1 UNK         0.3024 
    100 H100       26.7570   -0.8044   -1.7405 H         1 UNK         0.1171 
    101 H101       24.6018   -0.6888   -0.4738 H         1 UNK         0.0786 
    102 H102       25.7286   -1.8064    0.2757 H         1 UNK         0.0786 
    103 H103       24.3772   -2.4209   -0.6779 H         1 UNK         0.0786 
    104 H104       26.5585   -3.5467   -1.3109 H         1 UNK         0.2977 
    105 H105       25.6866    1.2875   -4.5063 H         1 UNK         0.3127 
    106 H106       25.1186    4.0566   -4.6555 H         1 UNK         0.0770 
    107 H107       23.2832    1.6287   -5.0305 H         1 UNK         0.0814 
    108 H108       22.7366    3.2760   -4.7398 H         1 UNK         0.0814 
    109 H109       23.6509    2.4277   -3.5029 H         1 UNK         0.0814 
    110 H110       25.1296    1.5608   -7.2002 H         1 UNK         0.2983 
    111 H111       24.0355    3.2784   -9.2698 H         1 UNK         0.0947 
    112 H112       24.6488    1.3694  -10.7469 H         1 UNK         0.0806 
    113 H113       23.7999    0.7931   -9.3220 H         1 UNK         0.0806 
    114 H114       25.5497    0.6160   -9.4395 H         1 UNK         0.0806 
    115 H115       27.0594    3.2179   -7.7584 H         1 UNK         0.3000 
    116 H116       29.0649    4.0427   -8.0785 H         1 UNK         0.0850 
    117 H117       29.4535    5.9623   -9.5652 H         1 UNK         0.0810 
    118 H118       27.8969    6.1527   -8.7760 H         1 UNK         0.0810 
    119 H119       27.9786    5.6362  -10.4606 H         1 UNK         0.0810 
    120 H120       28.4850    1.5115   -9.1090 H         1 UNK         0.3040 
    121 H121       30.1190    1.1779  -11.5662 H         1 UNK         0.0766 
    122 H122       27.9911   -0.1198  -11.3703 H         1 UNK         0.0812 
    123 H123       28.5398   -0.8259   -9.8566 H         1 UNK         0.0812 
    124 H124       29.3726   -1.2023  -11.3572 H         1 UNK         0.0812 
    125 H125       31.7767   -0.5738  -11.4303 H         1 UNK         0.3205 
    126 H126       33.7290    0.0781   -9.4207 H         1 UNK         0.0754 
    127 H127       35.1783   -1.4222  -10.7812 H         1 UNK         0.0769 
    128 H128       34.3340   -0.2645  -11.7932 H         1 UNK         0.0769 
    129 H129       33.7877   -1.9403  -11.7244 H         1 UNK         0.0769 
    130 H130       32.0756   -0.7152   -7.7221 H         1 UNK         0.2981 
    131 H131       31.8770   -1.8441   -5.8619 H         1 UNK         0.0541 
    132 H132       31.7980   -3.9146   -8.7149 H         1 UNK         0.3459 
    133 H133       30.7012   -5.0882   -8.0177 H         1 UNK         0.3459 
    134 H134       34.2639   -3.6262   -6.5281 H         1 UNK         0.0612 
    135 H135       34.4757   -1.9517   -6.1212 H         1 UNK         0.0612 
    136 H136       34.8272   -1.4765   -2.9064 H         1 UNK         0.0624 
    137 H137       33.8442   -0.7904   -4.1795 H         1 UNK         0.0624 
@<TRIPOS>BOND
     1    1    2 1    
     2    1   72 1    
     3    1   73 1    
     4    1   74 1    
     5    2    3 2    
     6    2    4 am   BACKBONE|DICT|INTERRES
     7    4    5 1    
     8    4   75 1    
     9    5    6 1    
    10    5   35 1    
    11    5   76 1    
    12    6    7 1    
    13    6   77 1    
    14    6   78 1    
    15    7    8 1    
    16    8    9 1    
    17    8   79 1    
    18    8   80 1    
    19    9   10 ar   
    20    9   14 ar   
    21   10   11 ar   
    22   10   81 1    
    23   11   12 ar   
    24   11   71 1    
    25   12   13 ar   
    26   12   82 1    
    27   13   14 ar   
    28   13   15 1    
    29   14   83 1    
    30   15   16 1    
    31   15   84 1    
    32   15   85 1    
    33   16   17 1    
    34   17   18 1    
    35   17   86 1    
    36   17   87 1    
    37   18   19 1    
    38   18   37 1    
    39   18   88 1    
    40   19   20 am   BACKBONE|DICT|INTERRES
    41   19   89 1    
    42   20   21 2    
    43   20   22 1    
    44   22   23 1    
    45   22   24 1    
    46   22   90 1    
    47   23   91 1    
    48   23   92 1    
    49   23   93 1    
    50   24   25 am   BACKBONE|DICT|INTERRES
    51   24   94 1    
    52   25   26 2    
    53   25   27 1    
    54   27   28 1    
    55   27   29 1    
    56   27   95 1    
    57   28   96 1    
    58   28   97 1    
    59   28   98 1    
    60   29   30 am   BACKBONE|DICT|INTERRES
    61   29   99 1    
    62   30   31 2    
    63   30   32 1    
    64   32   33 1    
    65   32   34 1    
    66   32  100 1    
    67   33  101 1    
    68   33  102 1    
    69   33  103 1    
    70   34   35 am   BACKBONE|DICT|INTERRES
    71   34  104 1    
    72   35   36 2    
    73   37   38 2    
    74   37   39 am   BACKBONE|DICT|INTERRES
    75   39   40 1    
    76   39  105 1    
    77   40   41 1    
    78   40   42 1    
    79   40  106 1    
    80   41  107 1    
    81   41  108 1    
    82   41  109 1    
    83   42   43 2    
    84   42   44 am   BACKBONE|DICT|INTERRES
    85   44   45 1    
    86   44  110 1    
    87   45   46 1    
    88   45   47 1    
    89   45  111 1    
    90   46  112 1    
    91   46  113 1    
    92   46  114 1    
    93   47   48 2    
    94   47   49 am   BACKBONE|DICT|INTERRES
    95   49   50 1    
    96   49  115 1    
    97   50   51 1    
    98   50   52 1    
    99   50  116 1    
   100   51  117 1    
   101   51  118 1    
   102   51  119 1    
   103   52   53 2    
   104   52   54 am   BACKBONE|DICT|INTERRES
   105   54   55 1    
   106   54  120 1    
   107   55   56 1    
   108   55   57 1    
   109   55  121 1    
   110   56  122 1    
   111   56  123 1    
   112   56  124 1    
   113   57   58 2    
   114   57   59 am   BACKBONE|DICT|INTERRES
   115   59   60 1    
   116   59  125 1    
   117   60   61 1    
   118   60   62 1    
   119   60  126 1    
   120   61  127 1    
   121   61  128 1    
   122   61  129 1    
   123   62   63 2    
   124   62   64 am   BACKBONE|DICT|INTERRES
   125   64   65 1    
   126   64  130 1    
   127   65   66 1    
   128   65   69 1    
   129   65  131 1    
   130   66   67 am   BACKBONE|DICT|INTERRES
   131   66   68 2    
   132   67  132 1    
   133   67  133 1    
   134   69   70 1    
   135   69  134 1    
   136   69  135 1    
   137   70   71 1    
   138   71  136 1    
   139   71  137 1    
@<TRIPOS>SUBSTRUCTURE
     1 UNK         1 GROUP             0       ****    0 ROOT    
