@<TRIPOS>MOLECULE
3R137
137   139    1
SMALL
USER_CHARGES


@<TRIPOS>ATOM
      1 CA         28.2379   -5.1213   -7.7552 C.3       0 UNK        -0.2020 
      2 C          28.1116   -5.2443   -6.2477 C.2       0 UNK         0.4855 
      3 O          27.0409   -5.5997   -5.7520 O.2       0 UNK        -0.5197 
      4 N          29.1929   -4.9471   -5.5126 N.am      1 UNK        -0.4892 
      5 CA         29.2210   -4.9438   -4.0443 C.3       1 UNK         0.0835 
      6 C6         30.6517   -4.7203   -3.4941 C.3       12 UNK        -0.0855 
      7 S7         30.7440   -5.0159   -1.6897 S.3       12 UNK        -0.2931 
      8 C8         31.7933   -3.6511   -1.0746 C.3       12 UNK         0.0378 
      9 C9         31.3198   -2.2612   -1.4910 C.ar      12 UNK        -0.0802 
     10 C10        32.2125   -1.3869   -2.1163 C.ar      12 UNK        -0.0944 
     11 C11        31.7985   -0.1189   -2.5405 C.ar      12 UNK        -0.0787 
     12 C12        30.4741    0.2699   -2.3197 C.ar      12 UNK        -0.0862 
     13 C13        29.5733   -0.5746   -1.6569 C.ar      12 UNK        -0.0733 
     14 C14        30.0098   -1.8382   -1.2425 C.ar      12 UNK        -0.0832 
     15 C15        28.1158   -0.1730   -1.4246 C.3       12 UNK         0.0240 
     16 S16        27.8678    1.6177   -1.1544 S.3       12 UNK        -0.2522 
     17 C17        26.3721    1.9753   -2.1404 C.3       12 UNK        -0.0967 
     18 CA         26.7221    2.3379   -3.6069 C.3       5 UNK         0.0660 
     19 N          27.1409    1.1545   -4.3591 N.am      5 UNK        -0.4015 
     20 C          27.7469    1.1673   -5.5514 C.2       4 UNK         0.4946 
     21 O          28.0810    2.1926   -6.1417 O.2       4 UNK        -0.5353 
     22 CA         27.9603   -0.1913   -6.2295 C.3       4 UNK         0.0277 
     23 CB         29.3900   -0.6855   -5.9738 C.3       4 UNK        -0.1981 
     24 N          26.9913   -1.2152   -5.8180 N.am      4 UNK        -0.4209 
     25 C          25.6728   -1.1575   -6.0677 C.2       3 UNK         0.4942 
     26 O          25.1359   -0.1911   -6.6084 O.2       3 UNK        -0.5208 
     27 CA         24.7889   -2.3374   -5.6268 C.3       3 UNK         0.0250 
     28 CB         24.5519   -3.2926   -6.8066 C.3       3 UNK        -0.1990 
     29 N          25.3309   -3.0850   -4.4917 N.am      3 UNK        -0.4232 
     30 C          25.4170   -2.6025   -3.2428 C.2       2 UNK         0.4993 
     31 O          24.9902   -1.4973   -2.9071 O.2       2 UNK        -0.5286 
     32 CA         26.1512   -3.4705   -2.2016 C.3       2 UNK         0.0209 
     33 CB         25.1495   -4.3427   -1.4288 C.3       2 UNK        -0.1931 
     34 N          27.2129   -4.3229   -2.7541 N.am      2 UNK        -0.4546 
     35 C          28.2323   -3.8902   -3.5105 C.2       1 UNK         0.5154 
     36 O          28.3810   -2.7152   -3.8399 O.2       1 UNK        -0.5181 
     37 C          25.5727    3.1061   -4.3022 C.2       5 UNK         0.5014 
     38 O          25.3897    4.2870   -4.0020 O.2       5 UNK        -0.5248 
     39 N          24.8393    2.4551   -5.2190 N.am      6 UNK        -0.4434 
     40 CA         23.8269    3.0778   -6.0723 C.3       6 UNK         0.0363 
     41 CB         22.5465    2.2257   -6.0495 C.3       6 UNK        -0.1936 
     42 C          24.3410    3.2392   -7.5121 C.2       6 UNK         0.5081 
     43 O          24.1467    4.2999   -8.1059 O.2       6 UNK        -0.5248 
     44 N          24.9690    2.1872   -8.0569 N.am      7 UNK        -0.4718 
     45 CA         25.4089    2.1084   -9.4529 C.3       7 UNK         0.0273 
     46 CB         25.6507    0.6342   -9.8195 C.3       7 UNK        -0.1935 
     47 C          26.6565    2.9453   -9.7817 C.2       7 UNK         0.5018 
     48 O          26.8297    3.3071  -10.9462 O.2       7 UNK        -0.5186 
     49 N          27.5081    3.2111   -8.7782 N.am      8 UNK        -0.4240 
     50 CA         28.8069    3.8935   -8.8770 C.3       8 UNK         0.0235 
     51 CB         28.6306    5.3687   -9.2980 C.3       8 UNK        -0.2000 
     52 C          29.8320    3.1341   -9.7472 C.2       8 UNK         0.4941 
     53 O          30.6888    3.7601  -10.3746 O.2       8 UNK        -0.5273 
     54 N          29.7360    1.7994   -9.7636 N.am      9 UNK        -0.4262 
     55 CA         30.5908    0.8780  -10.5052 C.3       9 UNK         0.0264 
     56 CB         30.1489    0.8206  -11.9795 C.3       9 UNK        -0.1955 
     57 C          30.4861   -0.5029   -9.8485 C.2       9 UNK         0.5031 
     58 O          29.4834   -0.7772   -9.1864 O.2       9 UNK        -0.5390 
     59 N          31.5120   -1.3412  -10.0562 N.am      10 UNK        -0.4204 
     60 CA         31.6651   -2.7013   -9.5131 C.3       10 UNK         0.0237 
     61 CB         30.5850   -3.6489  -10.0738 C.3       10 UNK        -0.1985 
     62 C          31.7869   -2.7427   -7.9732 C.2       10 UNK         0.4970 
     63 O          31.2978   -3.6728   -7.3264 O.2       10 UNK        -0.4914 
     64 N          32.4638   -1.7275   -7.4232 N.am      11 UNK        -0.4285 
     65 CA         32.8988   -1.6338   -6.0249 C.3       11 UNK         0.1007 
     66 C          33.9769   -2.7120   -5.7142 C.2       11 UNK         0.5703 
     67 N          33.8452   -3.4335   -4.6092 N.am      11 UNK        -0.7361 
     68 O          34.9409   -2.8799   -6.4595 O.2       11 UNK        -0.4986 
     69 C69        33.3765   -0.1809   -5.7472 C.3       12 UNK        -0.0947 
     70 S70        34.1387    0.1276   -4.1175 S.3       12 UNK        -0.2240 
     71 C71        32.7682    0.8784   -3.1743 C.3       12 UNK         0.0194 
     72 H72        29.2423   -5.3845   -8.0833 H         1 UNK         0.0906 
     73 H73        27.5358   -5.7877   -8.2556 H         1 UNK         0.0906 
     74 H74        28.0224   -4.0990   -8.0648 H         1 UNK         0.0906 
     75 H75        30.0240   -4.6005   -5.9835 H         1 UNK         0.3140 
     76 H76        28.8864   -5.9316   -3.7197 H         1 UNK         0.1085 
     77 H77        30.9980   -3.7159   -3.7413 H         1 UNK         0.0836 
     78 H78        31.3480   -5.4074   -3.9777 H         1 UNK         0.0836 
     79 H79        32.8152   -3.8287   -1.4134 H         1 UNK         0.0731 
     80 H80        31.8229   -3.6975    0.0147 H         1 UNK         0.0731 
     81 H81        33.2380   -1.6950   -2.2625 H         1 UNK         0.1312 
     82 H82        30.1500    1.2444   -2.6566 H         1 UNK         0.1406 
     83 H83        29.3204   -2.5112   -0.7515 H         1 UNK         0.1631 
     84 H84        27.7141   -0.6988   -0.5573 H         1 UNK         0.0717 
     85 H85        27.5366   -0.5116   -2.2814 H         1 UNK         0.0717 
     86 H86        25.6741    1.1370   -2.0900 H         1 UNK         0.0934 
     87 H87        25.8700    2.8109   -1.6481 H         1 UNK         0.0934 
     88 H88        27.5692    3.0276   -3.5928 H         1 UNK         0.0739 
     89 H89        26.8902    0.2590   -3.9660 H         1 UNK         0.3093 
     90 H90        27.8365   -0.0436   -7.3026 H         1 UNK         0.0818 
     91 H91        29.5415   -1.6793   -6.3931 H         1 UNK         0.0819 
     92 H92        30.1168   -0.0200   -6.4401 H         1 UNK         0.0819 
     93 H93        29.6260   -0.7304   -4.9106 H         1 UNK         0.0819 
     94 H94        27.3676   -1.9866   -5.2722 H         1 UNK         0.3041 
     95 H95        23.8235   -1.9245   -5.3262 H         1 UNK         0.0784 
     96 H96        24.0975   -2.7667   -7.6477 H         1 UNK         0.0793 
     97 H97        25.4828   -3.7332   -7.1641 H         1 UNK         0.0793 
     98 H98        23.8794   -4.1054   -6.5318 H         1 UNK         0.0793 
     99 H99        25.7356   -3.9923   -4.6908 H         1 UNK         0.3024 
    100 H100       26.6234   -2.7871   -1.4942 H         1 UNK         0.1171 
    101 H101       25.6351   -4.8788   -0.6131 H         1 UNK         0.0786 
    102 H102       24.3599   -3.7328   -0.9870 H         1 UNK         0.0786 
    103 H103       24.6699   -5.0774   -2.0769 H         1 UNK         0.0786 
    104 H104       27.1462   -5.3103   -2.5523 H         1 UNK         0.2977 
    105 H105       25.0616    1.4889   -5.4307 H         1 UNK         0.3127 
    106 H106       23.5711    4.0721   -5.6998 H         1 UNK         0.0770 
    107 H107       22.7239    1.2117   -6.4103 H         1 UNK         0.0814 
    108 H108       21.7740    2.6664   -6.6812 H         1 UNK         0.0814 
    109 H109       22.1385    2.1543   -5.0412 H         1 UNK         0.0814 
    110 H110       25.0504    1.3287   -7.5135 H         1 UNK         0.2983 
    111 H111       24.5975    2.4829  -10.0811 H         1 UNK         0.0947 
    112 H112       26.4543    0.1949   -9.2280 H         1 UNK         0.0806 
    113 H113       25.9286    0.5324  -10.8695 H         1 UNK         0.0806 
    114 H114       24.7546    0.0335   -9.6622 H         1 UNK         0.0806 
    115 H115       27.2966    2.8466   -7.8538 H         1 UNK         0.3000 
    116 H116       29.2223    3.8944   -7.8684 H         1 UNK         0.0850 
    117 H117       27.9067    5.8783   -8.6622 H         1 UNK         0.0810 
    118 H118       28.2934    5.4591  -10.3309 H         1 UNK         0.0810 
    119 H119       29.5719    5.9134   -9.2164 H         1 UNK         0.0810 
    120 H120       29.0406    1.3371   -9.1907 H         1 UNK         0.3040 
    121 H121       31.6258    1.2202  -10.4402 H         1 UNK         0.0766 
    122 H122       30.7635    0.1231  -12.5497 H         1 UNK         0.0812 
    123 H123       30.2373    1.7952  -12.4599 H         1 UNK         0.0812 
    124 H124       29.1115    0.4963  -12.0734 H         1 UNK         0.0812 
    125 H125       32.2773   -1.0175  -10.6328 H         1 UNK         0.3205 
    126 H126       32.6251   -3.0631   -9.8846 H         1 UNK         0.0754 
    127 H127       30.7764   -4.6802   -9.7760 H         1 UNK         0.0769 
    128 H128       30.5693   -3.6281  -11.1634 H         1 UNK         0.0769 
    129 H129       29.5893   -3.3805   -9.7226 H         1 UNK         0.0769 
    130 H130       32.8420   -1.0275   -8.0420 H         1 UNK         0.2981 
    131 H131       32.0303   -1.8278   -5.3924 H         1 UNK         0.0541 
    132 H132       34.5435   -4.1279   -4.3955 H         1 UNK         0.3459 
    133 H133       33.0698   -3.2888   -3.9858 H         1 UNK         0.3459 
    134 H134       34.1221    0.1069   -6.4907 H         1 UNK         0.0612 
    135 H135       32.5446    0.5108   -5.8857 H         1 UNK         0.0612 
    136 H136       33.2025    1.4742   -2.3707 H         1 UNK         0.0624 
    137 H137       32.2333    1.5794   -3.8168 H         1 UNK         0.0624 
@<TRIPOS>BOND
     1    1    2 1    
     2    1   72 1    
     3    1   73 1    
     4    1   74 1    
     5    2    3 2    
     6    2    4 am   BACKBONE|DICT|INTERRES
     7    4    5 1    
     8    4   75 1    
     9    5    6 1    
    10    5   35 1    
    11    5   76 1    
    12    6    7 1    
    13    6   77 1    
    14    6   78 1    
    15    7    8 1    
    16    8    9 1    
    17    8   79 1    
    18    8   80 1    
    19    9   10 ar   
    20    9   14 ar   
    21   10   11 ar   
    22   10   81 1    
    23   11   12 ar   
    24   11   71 1    
    25   12   13 ar   
    26   12   82 1    
    27   13   14 ar   
    28   13   15 1    
    29   14   83 1    
    30   15   16 1    
    31   15   84 1    
    32   15   85 1    
    33   16   17 1    
    34   17   18 1    
    35   17   86 1    
    36   17   87 1    
    37   18   19 1    
    38   18   37 1    
    39   18   88 1    
    40   19   20 am   BACKBONE|DICT|INTERRES
    41   19   89 1    
    42   20   21 2    
    43   20   22 1    
    44   22   23 1    
    45   22   24 1    
    46   22   90 1    
    47   23   91 1    
    48   23   92 1    
    49   23   93 1    
    50   24   25 am   BACKBONE|DICT|INTERRES
    51   24   94 1    
    52   25   26 2    
    53   25   27 1    
    54   27   28 1    
    55   27   29 1    
    56   27   95 1    
    57   28   96 1    
    58   28   97 1    
    59   28   98 1    
    60   29   30 am   BACKBONE|DICT|INTERRES
    61   29   99 1    
    62   30   31 2    
    63   30   32 1    
    64   32   33 1    
    65   32   34 1    
    66   32  100 1    
    67   33  101 1    
    68   33  102 1    
    69   33  103 1    
    70   34   35 am   BACKBONE|DICT|INTERRES
    71   34  104 1    
    72   35   36 2    
    73   37   38 2    
    74   37   39 am   BACKBONE|DICT|INTERRES
    75   39   40 1    
    76   39  105 1    
    77   40   41 1    
    78   40   42 1    
    79   40  106 1    
    80   41  107 1    
    81   41  108 1    
    82   41  109 1    
    83   42   43 2    
    84   42   44 am   BACKBONE|DICT|INTERRES
    85   44   45 1    
    86   44  110 1    
    87   45   46 1    
    88   45   47 1    
    89   45  111 1    
    90   46  112 1    
    91   46  113 1    
    92   46  114 1    
    93   47   48 2    
    94   47   49 am   BACKBONE|DICT|INTERRES
    95   49   50 1    
    96   49  115 1    
    97   50   51 1    
    98   50   52 1    
    99   50  116 1    
   100   51  117 1    
   101   51  118 1    
   102   51  119 1    
   103   52   53 2    
   104   52   54 am   BACKBONE|DICT|INTERRES
   105   54   55 1    
   106   54  120 1    
   107   55   56 1    
   108   55   57 1    
   109   55  121 1    
   110   56  122 1    
   111   56  123 1    
   112   56  124 1    
   113   57   58 2    
   114   57   59 am   BACKBONE|DICT|INTERRES
   115   59   60 1    
   116   59  125 1    
   117   60   61 1    
   118   60   62 1    
   119   60  126 1    
   120   61  127 1    
   121   61  128 1    
   122   61  129 1    
   123   62   63 2    
   124   62   64 am   BACKBONE|DICT|INTERRES
   125   64   65 1    
   126   64  130 1    
   127   65   66 1    
   128   65   69 1    
   129   65  131 1    
   130   66   67 am   BACKBONE|DICT|INTERRES
   131   66   68 2    
   132   67  132 1    
   133   67  133 1    
   134   69   70 1    
   135   69  134 1    
   136   69  135 1    
   137   70   71 1    
   138   71  136 1    
   139   71  137 1    
@<TRIPOS>SUBSTRUCTURE
     1 UNK         1 GROUP             0       ****    0 ROOT    
