@<TRIPOS>MOLECULE
3R137
137   139    1
SMALL
USER_CHARGES


@<TRIPOS>ATOM
      1 CA         30.6183   -3.2680   -8.7380 C.3       0 UNK        -0.2020 
      2 C          29.7452   -4.1621   -7.8748 C.2       0 UNK         0.4855 
      3 O          29.2466   -5.1807   -8.3542 O.2       0 UNK        -0.5197 
      4 N          29.5772   -3.8011   -6.5978 N.am      1 UNK        -0.4892 
      5 CA         28.8907   -4.6282   -5.5963 C.3       1 UNK         0.0835 
      6 C6         29.2915   -4.2262   -4.1588 C.3       12 UNK        -0.0855 
      7 S7         31.0164   -4.6807   -3.7882 S.3       12 UNK        -0.2931 
      8 C8         31.0798   -4.3295   -2.0045 C.3       12 UNK         0.0378 
      9 C9         31.2954   -2.8468   -1.7524 C.ar      12 UNK        -0.0802 
     10 C10        32.5947   -2.3419   -1.6724 C.ar      12 UNK        -0.0944 
     11 C11        32.8146   -0.9769   -1.4797 C.ar      12 UNK        -0.0787 
     12 C12        31.7202   -0.1138   -1.3522 C.ar      12 UNK        -0.0862 
     13 C13        30.4130   -0.6103   -1.4148 C.ar      12 UNK        -0.0733 
     14 C14        30.2077   -1.9798   -1.6100 C.ar      12 UNK        -0.0832 
     15 C15        29.2235    0.3273   -1.2475 C.3       12 UNK         0.0240 
     16 S16        28.8153    1.2119   -2.7866 S.3       12 UNK        -0.2522 
     17 C17        28.1976   -0.1382   -3.8521 C.3       12 UNK        -0.0967 
     18 CA         27.0778    0.2791   -4.8386 C.3       5 UNK         0.0660 
     19 N          25.8379    0.6742   -4.1555 N.am      5 UNK        -0.4015 
     20 C          24.6893    1.0154   -4.7582 C.2       4 UNK         0.4946 
     21 O          24.5728    1.2153   -5.9685 O.2       4 UNK        -0.5353 
     22 CA         23.4377    1.0145   -3.8767 C.3       4 UNK         0.0277 
     23 CB         22.3449    1.9609   -4.4076 C.3       4 UNK        -0.1981 
     24 N          22.9532   -0.3602   -3.9191 N.am      4 UNK        -0.4209 
     25 C          23.0362   -1.2386   -2.9136 C.2       3 UNK         0.4942 
     26 O          23.2938   -0.9351   -1.7483 O.2       3 UNK        -0.5208 
     27 CA         22.8637   -2.7203   -3.2967 C.3       3 UNK         0.0250 
     28 CB         21.3751   -3.1004   -3.3519 C.3       3 UNK        -0.1990 
     29 N          23.5125   -3.0655   -4.5713 N.am      3 UNK        -0.4232 
     30 C          24.8316   -2.9740   -4.8039 C.2       2 UNK         0.4993 
     31 O          25.6483   -2.6021   -3.9576 O.2       2 UNK        -0.5286 
     32 CA         25.3111   -3.3314   -6.2258 C.3       2 UNK         0.0209 
     33 CB         24.9296   -2.2353   -7.2378 C.3       2 UNK        -0.1931 
     34 N          26.7626   -3.5571   -6.2679 N.am      2 UNK        -0.4546 
     35 C          27.3545   -4.6370   -5.7372 C.2       1 UNK         0.5154 
     36 O          26.7279   -5.6207   -5.3370 O.2       1 UNK        -0.5181 
     37 C          27.5665    1.2643   -5.9182 C.2       5 UNK         0.5014 
     38 O          28.0589    0.8242   -6.9588 O.2       5 UNK        -0.5248 
     39 N          27.3784    2.5711   -5.6843 N.am      6 UNK        -0.4434 
     40 CA         27.7107    3.6641   -6.6032 C.3       6 UNK         0.0363 
     41 CB         27.3171    5.0025   -5.9601 C.3       6 UNK        -0.1936 
     42 C          27.0794    3.5360   -8.0029 C.2       6 UNK         0.5081 
     43 O          27.6924    3.9806   -8.9733 O.2       6 UNK        -0.5248 
     44 N          25.9112    2.8819   -8.1027 N.am      7 UNK        -0.4718 
     45 CA         25.2323    2.5801   -9.3681 C.3       7 UNK         0.0273 
     46 CB         23.8220    2.0448   -9.0724 C.3       7 UNK        -0.1935 
     47 C          26.0019    1.5915  -10.2658 C.2       7 UNK         0.5018 
     48 O          25.7747    1.5858  -11.4761 O.2       7 UNK        -0.5186 
     49 N          26.8998    0.7943   -9.6708 N.am      8 UNK        -0.4240 
     50 CA         27.7911   -0.1428  -10.3559 C.3       8 UNK         0.0235 
     51 CB         27.5533   -1.5530   -9.7893 C.3       8 UNK        -0.2000 
     52 C          29.2660    0.2853  -10.2339 C.2       8 UNK         0.4941 
     53 O          30.1480   -0.5499  -10.4291 O.2       8 UNK        -0.5273 
     54 N          29.5146    1.5683   -9.9260 N.am      9 UNK        -0.4262 
     55 CA         30.8292    2.1877   -9.7165 C.3       9 UNK         0.0264 
     56 CB         31.7048    2.1187  -10.9874 C.3       9 UNK        -0.1955 
     57 C          31.5498    1.6852   -8.4484 C.2       9 UNK         0.5031 
     58 O          32.7717    1.5213   -8.4553 O.2       9 UNK        -0.5390 
     59 N          30.7792    1.5083   -7.3673 N.am      10 UNK        -0.4204 
     60 CA         31.2119    1.2294   -5.9980 C.3       10 UNK         0.0237 
     61 CB         32.0964    2.3697   -5.4383 C.3       10 UNK        -0.1985 
     62 C          31.7894   -0.1855   -5.8408 C.2       10 UNK         0.4970 
     63 O          31.0623   -1.1619   -6.0380 O.2       10 UNK        -0.4914 
     64 N          33.0556   -0.2608   -5.4250 N.am      11 UNK        -0.4285 
     65 CA         33.7333   -1.4745   -4.9550 C.3       11 UNK         0.1007 
     66 C          34.0882   -2.5107   -6.0607 C.2       11 UNK         0.5703 
     67 N          33.9293   -2.1982   -7.3416 N.am      11 UNK        -0.7361 
     68 O          34.5231   -3.6166   -5.7495 O.2       11 UNK        -0.4986 
     69 C69        34.9751   -1.1335   -4.0778 C.3       12 UNK        -0.0947 
     70 S70        34.7671    0.3108   -2.9685 S.3       12 UNK        -0.2240 
     71 C71        34.2367   -0.4432   -1.4014 C.3       12 UNK         0.0194 
     72 H72        30.2881   -3.2914   -9.7757 H         1 UNK         0.0906 
     73 H73        31.6523   -3.6087   -8.7040 H         1 UNK         0.0906 
     74 H74        30.5879   -2.2331   -8.3990 H         1 UNK         0.0906 
     75 H75        30.0375   -2.9616   -6.2558 H         1 UNK         0.3140 
     76 H76        29.2053   -5.6634   -5.7506 H         1 UNK         0.1085 
     77 H77        28.6542   -4.7226   -3.4233 H         1 UNK         0.0836 
     78 H78        29.1574   -3.1537   -4.0113 H         1 UNK         0.0836 
     79 H79        30.1683   -4.6772   -1.5158 H         1 UNK         0.0731 
     80 H80        31.8966   -4.9026   -1.5630 H         1 UNK         0.0731 
     81 H81        33.4369   -3.0117   -1.7816 H         1 UNK         0.1312 
     82 H82        31.8862    0.9446   -1.2042 H         1 UNK         0.1406 
     83 H83        29.2009   -2.3716   -1.6582 H         1 UNK         0.1631 
     84 H84        29.4493    1.0619   -0.4733 H         1 UNK         0.0717 
     85 H85        28.3461   -0.2186   -0.8972 H         1 UNK         0.0717 
     86 H86        29.0415   -0.5692   -4.3919 H         1 UNK         0.0934 
     87 H87        27.8237   -0.9451   -3.2201 H         1 UNK         0.0934 
     88 H88        26.8193   -0.6257   -5.3872 H         1 UNK         0.0739 
     89 H89        25.8228    0.5103   -3.1592 H         1 UNK         0.3093 
     90 H90        23.7076    1.3193   -2.8632 H         1 UNK         0.0818 
     91 H91        22.7038    2.9904   -4.4376 H         1 UNK         0.0819 
     92 H92        22.0270    1.6967   -5.4172 H         1 UNK         0.0819 
     93 H93        21.4635    1.9419   -3.7666 H         1 UNK         0.0819 
     94 H94        22.7614   -0.7211   -4.8430 H         1 UNK         0.3041 
     95 H95        23.3386   -3.3167   -2.5145 H         1 UNK         0.0784 
     96 H96        20.8787   -2.8681   -2.4085 H         1 UNK         0.0793 
     97 H97        20.8464   -2.5614   -4.1392 H         1 UNK         0.0793 
     98 H98        21.2444   -4.1682   -3.5291 H         1 UNK         0.0793 
     99 H99        22.9068   -3.3883   -5.3127 H         1 UNK         0.3024 
    100 H100       24.8095   -4.2573   -6.5176 H         1 UNK         0.1171 
    101 H101       23.8719   -1.9780   -7.1717 H         1 UNK         0.0786 
    102 H102       25.4934   -1.3145   -7.0927 H         1 UNK         0.0786 
    103 H103       25.1037   -2.5769   -8.2568 H         1 UNK         0.0786 
    104 H104       27.3472   -2.7907   -6.5643 H         1 UNK         0.2977 
    105 H105       26.9606    2.8324   -4.8029 H         1 UNK         0.3127 
    106 H106       28.7944    3.6569   -6.7353 H         1 UNK         0.0770 
    107 H107       26.2447    5.0576   -5.7681 H         1 UNK         0.0814 
    108 H108       27.5750    5.8391   -6.6112 H         1 UNK         0.0814 
    109 H109       27.8379    5.1585   -5.0152 H         1 UNK         0.0814 
    110 H110       25.4920    2.4893   -7.2637 H         1 UNK         0.2983 
    111 H111       25.1349    3.5150   -9.9242 H         1 UNK         0.0947 
    112 H112       23.8563    1.0876   -8.5505 H         1 UNK         0.0806 
    113 H113       23.2614    1.8916   -9.9955 H         1 UNK         0.0806 
    114 H114       23.2515    2.7411   -8.4576 H         1 UNK         0.0806 
    115 H115       27.0455    0.8835   -8.6690 H         1 UNK         0.3000 
    116 H116       27.5683   -0.1688  -11.4244 H         1 UNK         0.0850 
    117 H117       28.1649   -2.2941  -10.3039 H         1 UNK         0.0810 
    118 H118       26.5159   -1.8547   -9.9248 H         1 UNK         0.0810 
    119 H119       27.7904   -1.6055   -8.7261 H         1 UNK         0.0810 
    120 H120       28.7220    2.1868   -9.7968 H         1 UNK         0.3040 
    121 H121       30.6237    3.2433   -9.5319 H         1 UNK         0.0766 
    122 H122       32.0320    1.1013  -11.2029 H         1 UNK         0.0812 
    123 H123       32.6030    2.7268  -10.8735 H         1 UNK         0.0812 
    124 H124       31.1699    2.4929  -11.8600 H         1 UNK         0.0812 
    125 H125       29.7710    1.4956   -7.4939 H         1 UNK         0.3205 
    126 H126       30.3099    1.2329   -5.3920 H         1 UNK         0.0754 
    127 H127       32.3284    2.2054   -4.3847 H         1 UNK         0.0769 
    128 H128       31.5787    3.3271   -5.5002 H         1 UNK         0.0769 
    129 H129       33.0400    2.4722   -5.9751 H         1 UNK         0.0769 
    130 H130       33.5711    0.5969   -5.2982 H         1 UNK         0.2981 
    131 H131       33.0145   -1.9871   -4.3158 H         1 UNK         0.0541 
    132 H132       34.1729   -2.8720   -8.0493 H         1 UNK         0.3459 
    133 H133       33.5726   -1.2918   -7.6016 H         1 UNK         0.3459 
    134 H134       35.8299   -0.9074   -4.7180 H         1 UNK         0.0612 
    135 H135       35.2687   -2.0013   -3.4850 H         1 UNK         0.0612 
    136 H136       34.9359   -1.2325   -1.1212 H         1 UNK         0.0624 
    137 H137       34.2965    0.3096   -0.6142 H         1 UNK         0.0624 
@<TRIPOS>BOND
     1    1    2 1    
     2    1   72 1    
     3    1   73 1    
     4    1   74 1    
     5    2    3 2    
     6    2    4 am   BACKBONE|DICT|INTERRES
     7    4    5 1    
     8    4   75 1    
     9    5    6 1    
    10    5   35 1    
    11    5   76 1    
    12    6    7 1    
    13    6   77 1    
    14    6   78 1    
    15    7    8 1    
    16    8    9 1    
    17    8   79 1    
    18    8   80 1    
    19    9   10 ar   
    20    9   14 ar   
    21   10   11 ar   
    22   10   81 1    
    23   11   12 ar   
    24   11   71 1    
    25   12   13 ar   
    26   12   82 1    
    27   13   14 ar   
    28   13   15 1    
    29   14   83 1    
    30   15   16 1    
    31   15   84 1    
    32   15   85 1    
    33   16   17 1    
    34   17   18 1    
    35   17   86 1    
    36   17   87 1    
    37   18   19 1    
    38   18   37 1    
    39   18   88 1    
    40   19   20 am   BACKBONE|DICT|INTERRES
    41   19   89 1    
    42   20   21 2    
    43   20   22 1    
    44   22   23 1    
    45   22   24 1    
    46   22   90 1    
    47   23   91 1    
    48   23   92 1    
    49   23   93 1    
    50   24   25 am   BACKBONE|DICT|INTERRES
    51   24   94 1    
    52   25   26 2    
    53   25   27 1    
    54   27   28 1    
    55   27   29 1    
    56   27   95 1    
    57   28   96 1    
    58   28   97 1    
    59   28   98 1    
    60   29   30 am   BACKBONE|DICT|INTERRES
    61   29   99 1    
    62   30   31 2    
    63   30   32 1    
    64   32   33 1    
    65   32   34 1    
    66   32  100 1    
    67   33  101 1    
    68   33  102 1    
    69   33  103 1    
    70   34   35 am   BACKBONE|DICT|INTERRES
    71   34  104 1    
    72   35   36 2    
    73   37   38 2    
    74   37   39 am   BACKBONE|DICT|INTERRES
    75   39   40 1    
    76   39  105 1    
    77   40   41 1    
    78   40   42 1    
    79   40  106 1    
    80   41  107 1    
    81   41  108 1    
    82   41  109 1    
    83   42   43 2    
    84   42   44 am   BACKBONE|DICT|INTERRES
    85   44   45 1    
    86   44  110 1    
    87   45   46 1    
    88   45   47 1    
    89   45  111 1    
    90   46  112 1    
    91   46  113 1    
    92   46  114 1    
    93   47   48 2    
    94   47   49 am   BACKBONE|DICT|INTERRES
    95   49   50 1    
    96   49  115 1    
    97   50   51 1    
    98   50   52 1    
    99   50  116 1    
   100   51  117 1    
   101   51  118 1    
   102   51  119 1    
   103   52   53 2    
   104   52   54 am   BACKBONE|DICT|INTERRES
   105   54   55 1    
   106   54  120 1    
   107   55   56 1    
   108   55   57 1    
   109   55  121 1    
   110   56  122 1    
   111   56  123 1    
   112   56  124 1    
   113   57   58 2    
   114   57   59 am   BACKBONE|DICT|INTERRES
   115   59   60 1    
   116   59  125 1    
   117   60   61 1    
   118   60   62 1    
   119   60  126 1    
   120   61  127 1    
   121   61  128 1    
   122   61  129 1    
   123   62   63 2    
   124   62   64 am   BACKBONE|DICT|INTERRES
   125   64   65 1    
   126   64  130 1    
   127   65   66 1    
   128   65   69 1    
   129   65  131 1    
   130   66   67 am   BACKBONE|DICT|INTERRES
   131   66   68 2    
   132   67  132 1    
   133   67  133 1    
   134   69   70 1    
   135   69  134 1    
   136   69  135 1    
   137   70   71 1    
   138   71  136 1    
   139   71  137 1    
@<TRIPOS>SUBSTRUCTURE
     1 UNK         1 GROUP             0       ****    0 ROOT    
