@<TRIPOS>MOLECULE
3R137
137   139    1
SMALL
USER_CHARGES


@<TRIPOS>ATOM
      1 CA         26.0453   -5.1632   -1.6926 C.3       0 UNK        -0.2020 
      2 C          26.4663   -4.0086   -0.7968 C.2       0 UNK         0.4855 
      3 O          25.8825   -3.8091    0.2688 O.2       0 UNK        -0.5197 
      4 N          27.4684   -3.2325   -1.2251 N.am      1 UNK        -0.4892 
      5 CA         28.0454   -2.1014   -0.4905 C.3       1 UNK         0.0835 
      6 C6         29.5131   -1.8488   -0.9185 C.3       12 UNK        -0.0855 
      7 S7         30.6730   -3.1162   -0.2930 S.3       12 UNK        -0.2931 
      8 C8         30.4982   -4.5155   -1.4585 C.3       12 UNK         0.0378 
      9 C9         30.5555   -4.1195   -2.9303 C.ar      12 UNK        -0.0802 
     10 C10        31.5739   -3.2886   -3.4086 C.ar      12 UNK        -0.0944 
     11 C11        31.6205   -2.9200   -4.7555 C.ar      12 UNK        -0.0787 
     12 C12        30.6408   -3.3977   -5.6325 C.ar      12 UNK        -0.0862 
     13 C13        29.6266   -4.2467   -5.1725 C.ar      12 UNK        -0.0733 
     14 C14        29.5944   -4.6073   -3.8222 C.ar      12 UNK        -0.0832 
     15 C15        28.5960   -4.8107   -6.1428 C.3       12 UNK         0.0240 
     16 S16        26.8930   -4.2674   -5.7617 S.3       12 UNK        -0.2522 
     17 C17        26.2351   -3.9923   -7.4517 C.3       12 UNK        -0.0967 
     18 CA         26.1201   -2.5061   -7.8921 C.3       5 UNK         0.0660 
     19 N          24.9324   -1.8524   -7.3396 N.am      5 UNK        -0.4015 
     20 C          24.5208   -0.6146   -7.6546 C.2       4 UNK         0.4946 
     21 O          25.0489    0.0748   -8.5284 O.2       4 UNK        -0.5353 
     22 CA         23.3632   -0.0154   -6.8337 C.3       4 UNK         0.0277 
     23 CB         22.0744    0.0117   -7.6709 C.3       4 UNK        -0.1981 
     24 N          23.0951   -0.6845   -5.5534 N.am      4 UNK        -0.4209 
     25 C          23.9650   -0.8214   -4.5424 C.2       3 UNK         0.4942 
     26 O          25.1406   -0.4500   -4.5904 O.2       3 UNK        -0.5208 
     27 CA         23.4442   -1.5849   -3.3148 C.3       3 UNK         0.0250 
     28 CB         23.5836   -3.0999   -3.5381 C.3       3 UNK        -0.1990 
     29 N          24.1590   -1.2227   -2.0923 N.am      3 UNK        -0.4232 
     30 C          24.0652   -0.0470   -1.4559 C.2       2 UNK         0.4993 
     31 O          23.3155    0.8643   -1.8100 O.2       2 UNK        -0.5286 
     32 CA         24.9262    0.1373   -0.1917 C.3       2 UNK         0.0209 
     33 CB         24.0447    0.1171    1.0686 C.3       2 UNK        -0.1931 
     34 N          25.9652   -0.8889   -0.0574 N.am      2 UNK        -0.4546 
     35 C          27.1546   -0.8544   -0.6708 C.2       1 UNK         0.5154 
     36 O          27.5293    0.0858   -1.3724 O.2       1 UNK        -0.5181 
     37 C          27.4111   -1.6999   -7.6265 C.2       5 UNK         0.5014 
     38 O          28.2882   -1.6769   -8.4874 O.2       5 UNK        -0.5248 
     39 N          27.4928   -1.0340   -6.4636 N.am      6 UNK        -0.4434 
     40 CA         28.6305   -0.2048   -6.0748 C.3       6 UNK         0.0363 
     41 CB         28.5662    0.0817   -4.5683 C.3       6 UNK        -0.1936 
     42 C          28.7048    1.0967   -6.8843 C.2       6 UNK         0.5081 
     43 O          29.7990    1.5180   -7.2602 O.2       6 UNK        -0.5248 
     44 N          27.5378    1.6862   -7.1799 N.am      7 UNK        -0.4718 
     45 CA         27.4034    2.8551   -8.0509 C.3       7 UNK         0.0273 
     46 CB         25.9891    3.4429   -7.9199 C.3       7 UNK        -0.1935 
     47 C          27.7305    2.5215   -9.5154 C.2       7 UNK         0.5018 
     48 O          28.3746    3.3283  -10.1860 O.2       7 UNK        -0.5186 
     49 N          27.3095    1.3319   -9.9709 N.am      8 UNK        -0.4240 
     50 CA         27.6374    0.7852  -11.2888 C.3       8 UNK         0.0235 
     51 CB         26.7679   -0.4510  -11.5693 C.3       8 UNK        -0.2000 
     52 C          29.1329    0.4523  -11.4356 C.2       8 UNK         0.4941 
     53 O          29.7234    0.7854  -12.4638 O.2       8 UNK        -0.5273 
     54 N          29.7177   -0.1877  -10.4117 N.am      9 UNK        -0.4262 
     55 CA         31.1386   -0.5390  -10.3506 C.3       9 UNK         0.0264 
     56 CB         31.3845   -1.5142   -9.1868 C.3       9 UNK        -0.1955 
     57 C          32.0637    0.6807  -10.2173 C.2       9 UNK         0.5031 
     58 O          33.1486    0.6633  -10.8004 O.2       9 UNK        -0.5390 
     59 N          31.6261    1.6921   -9.4491 N.am      10 UNK        -0.4204 
     60 CA         32.3631    2.8987   -9.0570 C.3       10 UNK         0.0237 
     61 CB         32.6735    3.7911  -10.2778 C.3       10 UNK        -0.1985 
     62 C          33.6087    2.5229   -8.2355 C.2       10 UNK         0.4970 
     63 O          34.7370    2.6992   -8.6989 O.2       10 UNK        -0.4914 
     64 N          33.3568    1.9538   -7.0491 N.am      11 UNK        -0.4285 
     65 CA         34.3490    1.3269   -6.1564 C.3       11 UNK         0.1007 
     66 C          35.5288    2.2332   -5.6955 C.2       11 UNK         0.5703 
     67 N          35.3858    3.5532   -5.6882 N.am      11 UNK        -0.7361 
     68 O          36.5878    1.7256   -5.3339 O.2       11 UNK        -0.4986 
     69 C69        33.6840    0.6728   -4.9135 C.3       12 UNK        -0.0947 
     70 S70        32.1687   -0.2780   -5.2713 S.3       12 UNK        -0.2240 
     71 C71        32.7314   -2.0046   -5.2505 C.3       12 UNK         0.0194 
     72 H72        26.3971   -5.0339   -2.7157 H         1 UNK         0.0906 
     73 H73        26.4466   -6.1001   -1.3075 H         1 UNK         0.0906 
     74 H74        24.9593   -5.2462   -1.7185 H         1 UNK         0.0906 
     75 H75        27.8863   -3.4096   -2.1271 H         1 UNK         0.3140 
     76 H76        28.0480   -2.3334    0.5774 H         1 UNK         0.1085 
     77 H77        29.5990   -1.7510   -2.0012 H         1 UNK         0.0836 
     78 H78        29.8635   -0.8972   -0.5135 H         1 UNK         0.0836 
     79 H79        31.2989   -5.2294   -1.2618 H         1 UNK         0.0731 
     80 H80        29.5689   -5.0401   -1.2334 H         1 UNK         0.0731 
     81 H81        32.3258   -2.9171   -2.7257 H         1 UNK         0.1312 
     82 H82        30.6742   -3.1125   -6.6751 H         1 UNK         0.1406 
     83 H83        28.8202   -5.2770   -3.4733 H         1 UNK         0.1631 
     84 H84        28.6334   -5.9006   -6.1177 H         1 UNK         0.0717 
     85 H85        28.8623   -4.5221   -7.1605 H         1 UNK         0.0717 
     86 H86        26.8513   -4.5337   -8.1713 H         1 UNK         0.0934 
     87 H87        25.2579   -4.4739   -7.5151 H         1 UNK         0.0934 
     88 H88        25.9773   -2.5070   -8.9747 H         1 UNK         0.0739 
     89 H89        24.4520   -2.3437   -6.6014 H         1 UNK         0.3093 
     90 H90        23.6430    1.0153   -6.6058 H         1 UNK         0.0818 
     91 H91        21.2722    0.5352   -7.1505 H         1 UNK         0.0819 
     92 H92        22.2340    0.5307   -8.6174 H         1 UNK         0.0819 
     93 H93        21.7242   -0.9941   -7.9067 H         1 UNK         0.0819 
     94 H94        22.1592   -1.0452   -5.4306 H         1 UNK         0.3041 
     95 H95        22.3885   -1.3430   -3.1731 H         1 UNK         0.0784 
     96 H96        23.0150   -3.4253   -4.4102 H         1 UNK         0.0793 
     97 H97        24.6226   -3.3883   -3.7023 H         1 UNK         0.0793 
     98 H98        23.2072   -3.6630   -2.6839 H         1 UNK         0.0793 
     99 H99        24.8260   -1.8916   -1.7407 H         1 UNK         0.3024 
    100 H100       25.4002    1.1192   -0.2649 H         1 UNK         0.1171 
    101 H101       24.6329    0.3058    1.9668 H         1 UNK         0.0786 
    102 H102       23.2745    0.8883    1.0201 H         1 UNK         0.0786 
    103 H103       23.5392   -0.8416    1.1926 H         1 UNK         0.0786 
    104 H104       25.7228   -1.7327    0.4525 H         1 UNK         0.2977 
    105 H105       26.7154   -1.0745   -5.8119 H         1 UNK         0.3127 
    106 H106       29.5378   -0.7737   -6.2775 H         1 UNK         0.0770 
    107 H107       27.6638    0.6297   -4.2947 H         1 UNK         0.0814 
    108 H108       29.4204    0.6774   -4.2450 H         1 UNK         0.0814 
    109 H109       28.5810   -0.8441   -3.9937 H         1 UNK         0.0814 
    110 H110       26.6848    1.2511   -6.8590 H         1 UNK         0.2983 
    111 H111       28.1190    3.6096   -7.7160 H         1 UNK         0.0947 
    112 H112       25.8843    4.3399   -8.5318 H         1 UNK         0.0806 
    113 H113       25.7709    3.7269   -6.8903 H         1 UNK         0.0806 
    114 H114       25.2225    2.7385   -8.2438 H         1 UNK         0.0806 
    115 H115       26.7178    0.7662   -9.3689 H         1 UNK         0.3000 
    116 H116       27.3925    1.5462  -12.0330 H         1 UNK         0.0850 
    117 H117       26.9545   -0.8383  -12.5718 H         1 UNK         0.0810 
    118 H118       25.7061   -0.2123  -11.5048 H         1 UNK         0.0810 
    119 H119       26.9717   -1.2580  -10.8658 H         1 UNK         0.0810 
    120 H120       29.1395   -0.5128   -9.6388 H         1 UNK         0.3040 
    121 H121       31.3958   -1.0497  -11.2811 H         1 UNK         0.0766 
    122 H122       31.1083   -1.0731   -8.2282 H         1 UNK         0.0812 
    123 H123       32.4367   -1.7949   -9.1251 H         1 UNK         0.0812 
    124 H124       30.8110   -2.4328   -9.3111 H         1 UNK         0.0812 
    125 H125       30.7523    1.5549   -8.9464 H         1 UNK         0.3205 
    126 H126       31.7029    3.4643   -8.3974 H         1 UNK         0.0754 
    127 H127       33.1460    4.7231   -9.9658 H         1 UNK         0.0769 
    128 H128       31.7617    4.0519  -10.8156 H         1 UNK         0.0769 
    129 H129       33.3497    3.3059  -10.9822 H         1 UNK         0.0769 
    130 H130       32.3928    1.8290   -6.7703 H         1 UNK         0.2981 
    131 H131       34.7994    0.5228   -6.7410 H         1 UNK         0.0541 
    132 H132       34.5218    3.9743   -5.9891 H         1 UNK         0.3459 
    133 H133       36.1547    4.1325   -5.3903 H         1 UNK         0.3459 
    134 H134       33.3975    1.4452   -4.1971 H         1 UNK         0.0612 
    135 H135       34.3987    0.0355   -4.3904 H         1 UNK         0.0612 
    136 H136       33.6086   -2.1094   -4.6109 H         1 UNK         0.0624 
    137 H137       33.0436   -2.2928   -6.2553 H         1 UNK         0.0624 
@<TRIPOS>BOND
     1    1    2 1    
     2    1   72 1    
     3    1   73 1    
     4    1   74 1    
     5    2    3 2    
     6    2    4 am   BACKBONE|DICT|INTERRES
     7    4    5 1    
     8    4   75 1    
     9    5    6 1    
    10    5   35 1    
    11    5   76 1    
    12    6    7 1    
    13    6   77 1    
    14    6   78 1    
    15    7    8 1    
    16    8    9 1    
    17    8   79 1    
    18    8   80 1    
    19    9   10 ar   
    20    9   14 ar   
    21   10   11 ar   
    22   10   81 1    
    23   11   12 ar   
    24   11   71 1    
    25   12   13 ar   
    26   12   82 1    
    27   13   14 ar   
    28   13   15 1    
    29   14   83 1    
    30   15   16 1    
    31   15   84 1    
    32   15   85 1    
    33   16   17 1    
    34   17   18 1    
    35   17   86 1    
    36   17   87 1    
    37   18   19 1    
    38   18   37 1    
    39   18   88 1    
    40   19   20 am   BACKBONE|DICT|INTERRES
    41   19   89 1    
    42   20   21 2    
    43   20   22 1    
    44   22   23 1    
    45   22   24 1    
    46   22   90 1    
    47   23   91 1    
    48   23   92 1    
    49   23   93 1    
    50   24   25 am   BACKBONE|DICT|INTERRES
    51   24   94 1    
    52   25   26 2    
    53   25   27 1    
    54   27   28 1    
    55   27   29 1    
    56   27   95 1    
    57   28   96 1    
    58   28   97 1    
    59   28   98 1    
    60   29   30 am   BACKBONE|DICT|INTERRES
    61   29   99 1    
    62   30   31 2    
    63   30   32 1    
    64   32   33 1    
    65   32   34 1    
    66   32  100 1    
    67   33  101 1    
    68   33  102 1    
    69   33  103 1    
    70   34   35 am   BACKBONE|DICT|INTERRES
    71   34  104 1    
    72   35   36 2    
    73   37   38 2    
    74   37   39 am   BACKBONE|DICT|INTERRES
    75   39   40 1    
    76   39  105 1    
    77   40   41 1    
    78   40   42 1    
    79   40  106 1    
    80   41  107 1    
    81   41  108 1    
    82   41  109 1    
    83   42   43 2    
    84   42   44 am   BACKBONE|DICT|INTERRES
    85   44   45 1    
    86   44  110 1    
    87   45   46 1    
    88   45   47 1    
    89   45  111 1    
    90   46  112 1    
    91   46  113 1    
    92   46  114 1    
    93   47   48 2    
    94   47   49 am   BACKBONE|DICT|INTERRES
    95   49   50 1    
    96   49  115 1    
    97   50   51 1    
    98   50   52 1    
    99   50  116 1    
   100   51  117 1    
   101   51  118 1    
   102   51  119 1    
   103   52   53 2    
   104   52   54 am   BACKBONE|DICT|INTERRES
   105   54   55 1    
   106   54  120 1    
   107   55   56 1    
   108   55   57 1    
   109   55  121 1    
   110   56  122 1    
   111   56  123 1    
   112   56  124 1    
   113   57   58 2    
   114   57   59 am   BACKBONE|DICT|INTERRES
   115   59   60 1    
   116   59  125 1    
   117   60   61 1    
   118   60   62 1    
   119   60  126 1    
   120   61  127 1    
   121   61  128 1    
   122   61  129 1    
   123   62   63 2    
   124   62   64 am   BACKBONE|DICT|INTERRES
   125   64   65 1    
   126   64  130 1    
   127   65   66 1    
   128   65   69 1    
   129   65  131 1    
   130   66   67 am   BACKBONE|DICT|INTERRES
   131   66   68 2    
   132   67  132 1    
   133   67  133 1    
   134   69   70 1    
   135   69  134 1    
   136   69  135 1    
   137   70   71 1    
   138   71  136 1    
   139   71  137 1    
@<TRIPOS>SUBSTRUCTURE
     1 UNK         1 GROUP             0       ****    0 ROOT    
