@<TRIPOS>MOLECULE
3R137
137   139    1
SMALL
USER_CHARGES


@<TRIPOS>ATOM
      1 CA         29.3025   -2.1639    3.0369 C.3       0 UNK        -0.2020 
      2 C          28.6239   -2.6912    1.7811 C.2       0 UNK         0.4855 
      3 O          27.6529   -3.4417    1.8854 O.2       0 UNK        -0.5197 
      4 N          29.1334   -2.3027    0.6035 N.am      1 UNK        -0.4892 
      5 CA         28.6313   -2.6653   -0.7321 C.3       1 UNK         0.0835 
      6 C6         28.7474   -4.1872   -1.0504 C.3       12 UNK        -0.0855 
      7 S7         30.4503   -4.8128   -0.8302 S.3       12 UNK        -0.2931 
      8 C8         30.9407   -5.2300   -2.5385 C.3       12 UNK         0.0378 
      9 C9         30.8924   -4.0517   -3.5083 C.ar      12 UNK        -0.0802 
     10 C10        31.3993   -2.7966   -3.1526 C.ar      12 UNK        -0.0944 
     11 C11        31.3692   -1.7333   -4.0590 C.ar      12 UNK        -0.0787 
     12 C12        30.8346   -1.9317   -5.3350 C.ar      12 UNK        -0.0862 
     13 C13        30.3434   -3.1845   -5.7135 C.ar      12 UNK        -0.0733 
     14 C14        30.3753   -4.2386   -4.7943 C.ar      12 UNK        -0.0832 
     15 C15        29.8340   -3.4004   -7.1346 C.3       12 UNK         0.0240 
     16 S16        28.2206   -4.2504   -7.2259 S.3       12 UNK        -0.2522 
     17 C17        27.1170   -3.1327   -6.2992 C.3       12 UNK        -0.0967 
     18 CA         26.5111   -2.0176   -7.1910 C.3       5 UNK         0.0660 
     19 N          25.1761   -1.6206   -6.7497 N.am      5 UNK        -0.4015 
     20 C          24.2260   -1.1217   -7.5535 C.2       4 UNK         0.4946 
     21 O          24.3306   -1.0506   -8.7779 O.2       4 UNK        -0.5353 
     22 CA         22.9378   -0.6030   -6.8867 C.3       4 UNK         0.0277 
     23 CB         21.8449   -1.6837   -6.9179 C.3       4 UNK        -0.1981 
     24 N          23.1307   -0.1508   -5.5062 N.am      4 UNK        -0.4209 
     25 C          23.8852    0.8969   -5.1446 C.2       3 UNK         0.4942 
     26 O          24.4700    1.6281   -5.9414 O.2       3 UNK        -0.5208 
     27 CA         24.0723    1.1244   -3.6355 C.3       3 UNK         0.0250 
     28 CB         22.9336    1.9915   -3.0755 C.3       3 UNK        -0.1990 
     29 N          24.1768   -0.1172   -2.8584 N.am      3 UNK        -0.4232 
     30 C          25.1000   -1.0696   -3.0529 C.2       2 UNK         0.4993 
     31 O          25.9396   -1.0414   -3.9572 O.2       2 UNK        -0.5286 
     32 CA         25.0370   -2.2924   -2.1261 C.3       2 UNK         0.0209 
     33 CB         24.2838   -3.4406   -2.8176 C.3       2 UNK        -0.1931 
     34 N          26.3763   -2.7532   -1.7545 N.am      2 UNK        -0.4546 
     35 C          27.2247   -2.0660   -0.9762 C.2       1 UNK         0.5154 
     36 O          26.9348   -0.9796   -0.4654 O.2       1 UNK        -0.5181 
     37 C          27.4178   -0.7778   -7.2398 C.2       5 UNK         0.5014 
     38 O          28.0205   -0.5087   -8.2777 O.2       5 UNK        -0.5248 
     39 N          27.4786   -0.0322   -6.1262 N.am      6 UNK        -0.4434 
     40 CA         28.3529    1.1289   -5.9384 C.3       6 UNK         0.0363 
     41 CB         28.2526    1.6140   -4.4851 C.3       6 UNK        -0.1936 
     42 C          28.1069    2.2871   -6.9234 C.2       6 UNK         0.5081 
     43 O          29.0450    3.0193   -7.2370 O.2       6 UNK        -0.5248 
     44 N          26.8712    2.4301   -7.4156 N.am      7 UNK        -0.4718 
     45 CA         26.5184    3.3786   -8.4734 C.3       7 UNK         0.0273 
     46 CB         25.0070    3.6547   -8.4071 C.3       7 UNK        -0.1935 
     47 C          26.9093    2.9026   -9.8868 C.2       7 UNK         0.5018 
     48 O          26.8713    3.7192  -10.8089 O.2       7 UNK        -0.5186 
     49 N          27.2307    1.6113  -10.0548 N.am      8 UNK        -0.4240 
     50 CA         27.4149    0.9666  -11.3556 C.3       8 UNK         0.0235 
     51 CB         26.4714   -0.2448  -11.4493 C.3       8 UNK        -0.2000 
     52 C          28.8607    0.5257  -11.6235 C.2       8 UNK         0.4941 
     53 O          29.3040    0.6489  -12.7669 O.2       8 UNK        -0.5273 
     54 N          29.5623   -0.0099  -10.6151 N.am      9 UNK        -0.4262 
     55 CA         30.8628   -0.6606  -10.7897 C.3       9 UNK         0.0264 
     56 CB         30.6339   -2.1532  -11.0973 C.3       9 UNK        -0.1955 
     57 C          31.7556   -0.4995   -9.5546 C.2       9 UNK         0.5031 
     58 O          31.2601   -0.2174   -8.4614 O.2       9 UNK        -0.5390 
     59 N          33.0618   -0.7310   -9.7601 N.am      10 UNK        -0.4204 
     60 CA         34.1367   -0.7333   -8.7609 C.3       10 UNK         0.0237 
     61 CB         34.0066   -1.9765   -7.8470 C.3       10 UNK        -0.1985 
     62 C          34.2178    0.6081   -8.0057 C.2       10 UNK         0.4970 
     63 O          34.3855    1.6489   -8.6435 O.2       10 UNK        -0.4914 
     64 N          34.0832    0.5573   -6.6776 N.am      11 UNK        -0.4285 
     65 CA         33.9300    1.6996   -5.7644 C.3       11 UNK         0.1007 
     66 C          32.6120    2.5129   -5.9375 C.2       11 UNK         0.5703 
     67 N          31.6593    2.0797   -6.7510 N.am      11 UNK        -0.7361 
     68 O          32.4605    3.5673   -5.3253 O.2       11 UNK        -0.4986 
     69 C69        34.1846    1.2953   -4.2765 C.3       12 UNK        -0.0947 
     70 S70        33.7662   -0.4328   -3.8455 S.3       12 UNK        -0.2240 
     71 C71        31.9571   -0.3847   -3.6764 C.3       12 UNK         0.0194 
     72 H72        30.1518   -1.5218    2.8045 H         1 UNK         0.0906 
     73 H73        28.5945   -1.5873    3.6317 H         1 UNK         0.0906 
     74 H74        29.6623   -2.9936    3.6449 H         1 UNK         0.0906 
     75 H75        29.9166   -1.6646    0.6011 H         1 UNK         0.3140 
     76 H76        29.2729   -2.1389   -1.4393 H         1 UNK         0.1085 
     77 H77        28.0850   -4.7691   -0.4073 H         1 UNK         0.0836 
     78 H78        28.4374   -4.3967   -2.0752 H         1 UNK         0.0836 
     79 H79        31.9578   -5.6234   -2.5225 H         1 UNK         0.0731 
     80 H80        30.3025   -6.0430   -2.8886 H         1 UNK         0.0731 
     81 H81        31.8315   -2.6485   -2.1724 H         1 UNK         0.1312 
     82 H82        30.8297   -1.1172   -6.0462 H         1 UNK         0.1406 
     83 H83        30.0069   -5.2116   -5.0902 H         1 UNK         0.1631 
     84 H84        30.5694   -3.9973   -7.6752 H         1 UNK         0.0717 
     85 H85        29.7679   -2.4538   -7.6711 H         1 UNK         0.0717 
     86 H86        26.3171   -3.7641   -5.9094 H         1 UNK         0.0934 
     87 H87        27.6218   -2.7392   -5.4143 H         1 UNK         0.0934 
     88 H88        26.4241   -2.4034   -8.2096 H         1 UNK         0.0739 
     89 H89        25.0396   -1.5772   -5.7474 H         1 UNK         0.3093 
     90 H90        22.5923    0.2525   -7.4714 H         1 UNK         0.0818 
     91 H91        20.8994   -1.3046   -6.5296 H         1 UNK         0.0819 
     92 H92        21.6605   -2.0217   -7.9388 H         1 UNK         0.0819 
     93 H93        22.1242   -2.5595   -6.3307 H         1 UNK         0.0819 
     94 H94        22.6828   -0.6911   -4.7804 H         1 UNK         0.3041 
     95 H95        25.0085    1.6694   -3.5030 H         1 UNK         0.0784 
     96 H96        22.8500    2.9287   -3.6279 H         1 UNK         0.0793 
     97 H97        21.9687    1.4871   -3.1417 H         1 UNK         0.0793 
     98 H98        23.1077    2.2494   -2.0307 H         1 UNK         0.0793 
     99 H99        23.5164   -0.2276   -2.1019 H         1 UNK         0.3024 
    100 H100       24.5063   -2.0202   -1.2107 H         1 UNK         0.1171 
    101 H101       23.2699   -3.1403   -3.0855 H         1 UNK         0.0786 
    102 H102       24.1986   -4.3092   -2.1642 H         1 UNK         0.0786 
    103 H103       24.7825   -3.7585   -3.7342 H         1 UNK         0.0786 
    104 H104       26.6838   -3.6211   -2.1661 H         1 UNK         0.2977 
    105 H105       26.9378   -0.3288   -5.3149 H         1 UNK         0.3127 
    106 H106       29.3716    0.7782   -6.1068 H         1 UNK         0.0770 
    107 H107       27.2519    1.9780   -4.2534 H         1 UNK         0.0814 
    108 H108       28.9506    2.4317   -4.2996 H         1 UNK         0.0814 
    109 H109       28.4928    0.8161   -3.7818 H         1 UNK         0.0814 
    110 H110       26.1196    1.8586   -7.0400 H         1 UNK         0.2983 
    111 H111       27.0427    4.3196   -8.2920 H         1 UNK         0.0947 
    112 H112       24.7064    4.3853   -9.1592 H         1 UNK         0.0806 
    113 H113       24.7198    4.0552   -7.4346 H         1 UNK         0.0806 
    114 H114       24.4253    2.7480   -8.5798 H         1 UNK         0.0806 
    115 H115       27.3150    1.0095   -9.2407 H         1 UNK         0.3000 
    116 H116       27.1392    1.6541  -12.1582 H         1 UNK         0.0850 
    117 H117       26.5681   -0.7441  -12.4143 H         1 UNK         0.0810 
    118 H118       25.4291    0.0563  -11.3424 H         1 UNK         0.0810 
    119 H119       26.6828   -0.9843  -10.6757 H         1 UNK         0.0810 
    120 H120       29.1556   -0.0799   -9.6822 H         1 UNK         0.3040 
    121 H121       31.3913   -0.2000  -11.6273 H         1 UNK         0.0766 
    122 H122       31.5772   -2.6846  -11.2287 H         1 UNK         0.0812 
    123 H123       30.0611   -2.2856  -12.0153 H         1 UNK         0.0812 
    124 H124       30.0898   -2.6473  -10.2912 H         1 UNK         0.0812 
    125 H125       33.3606   -0.9202  -10.7068 H         1 UNK         0.3205 
    126 H126       35.0740   -0.8256   -9.3116 H         1 UNK         0.0754 
    127 H127       34.8406   -2.0469   -7.1473 H         1 UNK         0.0769 
    128 H128       34.0123   -2.8936   -8.4361 H         1 UNK         0.0769 
    129 H129       33.0824   -1.9700   -7.2679 H         1 UNK         0.0769 
    130 H130       33.9446   -0.3443   -6.2448 H         1 UNK         0.2981 
    131 H131       34.7151    2.4081   -6.0351 H         1 UNK         0.0541 
    132 H132       31.7575    1.2204   -7.2824 H         1 UNK         0.3459 
    133 H133       30.8080    2.6225   -6.8638 H         1 UNK         0.3459 
    134 H134       33.6926    1.9673   -3.5706 H         1 UNK         0.0612 
    135 H135       35.2501    1.4048   -4.0701 H         1 UNK         0.0612 
    136 H136       31.6939   -0.1324   -2.6483 H         1 UNK         0.0624 
    137 H137       31.5347    0.3982   -4.3060 H         1 UNK         0.0624 
@<TRIPOS>BOND
     1    1    2 1    
     2    1   72 1    
     3    1   73 1    
     4    1   74 1    
     5    2    3 2    
     6    2    4 am   BACKBONE|DICT|INTERRES
     7    4    5 1    
     8    4   75 1    
     9    5    6 1    
    10    5   35 1    
    11    5   76 1    
    12    6    7 1    
    13    6   77 1    
    14    6   78 1    
    15    7    8 1    
    16    8    9 1    
    17    8   79 1    
    18    8   80 1    
    19    9   10 ar   
    20    9   14 ar   
    21   10   11 ar   
    22   10   81 1    
    23   11   12 ar   
    24   11   71 1    
    25   12   13 ar   
    26   12   82 1    
    27   13   14 ar   
    28   13   15 1    
    29   14   83 1    
    30   15   16 1    
    31   15   84 1    
    32   15   85 1    
    33   16   17 1    
    34   17   18 1    
    35   17   86 1    
    36   17   87 1    
    37   18   19 1    
    38   18   37 1    
    39   18   88 1    
    40   19   20 am   BACKBONE|DICT|INTERRES
    41   19   89 1    
    42   20   21 2    
    43   20   22 1    
    44   22   23 1    
    45   22   24 1    
    46   22   90 1    
    47   23   91 1    
    48   23   92 1    
    49   23   93 1    
    50   24   25 am   BACKBONE|DICT|INTERRES
    51   24   94 1    
    52   25   26 2    
    53   25   27 1    
    54   27   28 1    
    55   27   29 1    
    56   27   95 1    
    57   28   96 1    
    58   28   97 1    
    59   28   98 1    
    60   29   30 am   BACKBONE|DICT|INTERRES
    61   29   99 1    
    62   30   31 2    
    63   30   32 1    
    64   32   33 1    
    65   32   34 1    
    66   32  100 1    
    67   33  101 1    
    68   33  102 1    
    69   33  103 1    
    70   34   35 am   BACKBONE|DICT|INTERRES
    71   34  104 1    
    72   35   36 2    
    73   37   38 2    
    74   37   39 am   BACKBONE|DICT|INTERRES
    75   39   40 1    
    76   39  105 1    
    77   40   41 1    
    78   40   42 1    
    79   40  106 1    
    80   41  107 1    
    81   41  108 1    
    82   41  109 1    
    83   42   43 2    
    84   42   44 am   BACKBONE|DICT|INTERRES
    85   44   45 1    
    86   44  110 1    
    87   45   46 1    
    88   45   47 1    
    89   45  111 1    
    90   46  112 1    
    91   46  113 1    
    92   46  114 1    
    93   47   48 2    
    94   47   49 am   BACKBONE|DICT|INTERRES
    95   49   50 1    
    96   49  115 1    
    97   50   51 1    
    98   50   52 1    
    99   50  116 1    
   100   51  117 1    
   101   51  118 1    
   102   51  119 1    
   103   52   53 2    
   104   52   54 am   BACKBONE|DICT|INTERRES
   105   54   55 1    
   106   54  120 1    
   107   55   56 1    
   108   55   57 1    
   109   55  121 1    
   110   56  122 1    
   111   56  123 1    
   112   56  124 1    
   113   57   58 2    
   114   57   59 am   BACKBONE|DICT|INTERRES
   115   59   60 1    
   116   59  125 1    
   117   60   61 1    
   118   60   62 1    
   119   60  126 1    
   120   61  127 1    
   121   61  128 1    
   122   61  129 1    
   123   62   63 2    
   124   62   64 am   BACKBONE|DICT|INTERRES
   125   64   65 1    
   126   64  130 1    
   127   65   66 1    
   128   65   69 1    
   129   65  131 1    
   130   66   67 am   BACKBONE|DICT|INTERRES
   131   66   68 2    
   132   67  132 1    
   133   67  133 1    
   134   69   70 1    
   135   69  134 1    
   136   69  135 1    
   137   70   71 1    
   138   71  136 1    
   139   71  137 1    
@<TRIPOS>SUBSTRUCTURE
     1 UNK         1 GROUP             0       ****    0 ROOT    
