@<TRIPOS>MOLECULE
3R137
137   139    1
SMALL
USER_CHARGES


@<TRIPOS>ATOM
      1 CA         22.9690   -5.4582   -3.6120 C.3       0 UNK        -0.2020 
      2 C          23.8382   -4.8888   -2.5019 C.2       0 UNK         0.4855 
      3 O          23.3217   -4.2265   -1.6008 O.2       0 UNK        -0.5197 
      4 N          25.1550   -5.1305   -2.5636 N.am      1 UNK        -0.4892 
      5 CA         26.1650   -4.6248   -1.6265 C.3       1 UNK         0.0835 
      6 C6         27.5796   -5.2034   -1.9057 C.3       12 UNK        -0.0855 
      7 S7         28.0899   -5.2085   -3.6656 S.3       12 UNK        -0.2931 
      8 C8         29.8992   -5.0350   -3.5366 C.3       12 UNK         0.0378 
      9 C9         30.3874   -3.6436   -3.9238 C.ar      12 UNK        -0.0802 
     10 C10        31.2453   -3.4819   -5.0165 C.ar      12 UNK        -0.0944 
     11 C11        31.7580   -2.2220   -5.3401 C.ar      12 UNK        -0.0787 
     12 C12        31.3824   -1.1088   -4.5813 C.ar      12 UNK        -0.0862 
     13 C13        30.5348   -1.2565   -3.4782 C.ar      12 UNK        -0.0733 
     14 C14        30.0398   -2.5265   -3.1580 C.ar      12 UNK        -0.0832 
     15 C15        30.2311   -0.0654   -2.5773 C.3       12 UNK         0.0240 
     16 S16        28.4476    0.1816   -2.3100 S.3       12 UNK        -0.2522 
     17 C17        28.0203    1.4172   -3.5737 C.3       12 UNK        -0.0967 
     18 CA         27.6446    0.8119   -4.9473 C.3       5 UNK         0.0660 
     19 N          26.5536   -0.1743   -4.8671 N.am      5 UNK        -0.4015 
     20 C          25.9788   -0.7964   -5.9105 C.2       4 UNK         0.4946 
     21 O          26.2805   -0.5793   -7.0838 O.2       4 UNK        -0.5353 
     22 CA         24.8611   -1.8097   -5.6312 C.3       4 UNK         0.0277 
     23 CB         25.4002   -3.2432   -5.7455 C.3       4 UNK        -0.1981 
     24 N          24.2292   -1.6160   -4.3254 N.am      4 UNK        -0.4209 
     25 C          23.2186   -0.7642   -4.0963 C.2       3 UNK         0.4942 
     26 O          22.7277   -0.0445   -4.9666 O.2       3 UNK        -0.5208 
     27 CA         22.6431   -0.6991   -2.6698 C.3       3 UNK         0.0250 
     28 CB         21.3489   -1.5235   -2.5755 C.3       3 UNK        -0.1990 
     29 N          23.5882   -1.1615   -1.6513 N.am      3 UNK        -0.4232 
     30 C          24.5880   -0.4105   -1.1652 C.2       2 UNK         0.4993 
     31 O          24.7664    0.7678   -1.4744 O.2       2 UNK        -0.5286 
     32 CA         25.5731   -1.0874   -0.1918 C.3       2 UNK         0.0209 
     33 CB         25.1304   -0.8577    1.2622 C.3       2 UNK        -0.1931 
     34 N          25.7604   -2.5258   -0.4188 N.am      2 UNK        -0.4546 
     35 C          26.1510   -3.0840   -1.5740 C.2       1 UNK         0.5154 
     36 O          26.4117   -2.4374   -2.5884 O.2       1 UNK        -0.5181 
     37 C          27.3725    1.9632   -5.9376 C.2       5 UNK         0.5014 
     38 O          28.2966    2.3970   -6.6242 O.2       5 UNK        -0.5248 
     39 N          26.1131    2.4186   -6.0118 N.am      6 UNK        -0.4434 
     40 CA         25.6549    3.4678   -6.9260 C.3       6 UNK         0.0363 
     41 CB         24.2157    3.8617   -6.5566 C.3       6 UNK        -0.1936 
     42 C          25.7397    3.0807   -8.4149 C.2       6 UNK         0.5081 
     43 O          25.8919    3.9687   -9.2542 O.2       6 UNK        -0.5248 
     44 N          25.6398    1.7797   -8.7175 N.am      7 UNK        -0.4718 
     45 CA         25.7880    1.2290  -10.0644 C.3       7 UNK         0.0273 
     46 CB         24.7975    0.0676  -10.2514 C.3       7 UNK        -0.1935 
     47 C          27.2276    0.7562  -10.3134 C.2       7 UNK         0.5018 
     48 O          27.7488    0.9675  -11.4090 O.2       7 UNK        -0.5186 
     49 N          27.8372    0.1189   -9.3031 N.am      8 UNK        -0.4240 
     50 CA         29.1884   -0.4403   -9.3588 C.3       8 UNK         0.0235 
     51 CB         29.4118   -1.3657   -8.1513 C.3       8 UNK        -0.2000 
     52 C          30.2924    0.6269   -9.4363 C.2       8 UNK         0.4941 
     53 O          31.2733    0.4077  -10.1474 O.2       8 UNK        -0.5273 
     54 N          30.1119    1.7488   -8.7199 N.am      9 UNK        -0.4262 
     55 CA         31.0482    2.8696   -8.5786 C.3       9 UNK         0.0264 
     56 CB         31.1703    3.6485   -9.9090 C.3       9 UNK        -0.1955 
     57 C          32.3912    2.4065   -7.9770 C.2       9 UNK         0.5031 
     58 O          32.3821    1.6693   -6.9880 O.2       9 UNK        -0.5390 
     59 N          33.5161    2.8342   -8.5662 N.am      10 UNK        -0.4204 
     60 CA         34.8469    2.3044   -8.2693 C.3       10 UNK         0.0237 
     61 CB         35.9182    3.2626   -8.8158 C.3       10 UNK        -0.1985 
     62 C          34.9819    0.9074   -8.8942 C.2       10 UNK         0.4970 
     63 O          34.7162    0.7561  -10.0886 O.2       10 UNK        -0.4914 
     64 N          35.3730   -0.0782   -8.0797 N.am      11 UNK        -0.4285 
     65 CA         35.3808   -1.5047   -8.4452 C.3       11 UNK         0.1007 
     66 C          36.4205   -1.9176   -9.5290 C.2       11 UNK         0.5703 
     67 N          37.4193   -1.0998   -9.8398 N.am      11 UNK        -0.7361 
     68 O          36.3159   -3.0022  -10.0971 O.2       11 UNK        -0.4986 
     69 C69        35.5037   -2.4268   -7.2015 C.3       12 UNK        -0.0947 
     70 S70        34.4528   -1.9775   -5.7782 S.3       12 UNK        -0.2240 
     71 C71        32.7711   -2.0775   -6.4661 C.3       12 UNK         0.0194 
     72 H72        22.1851   -6.0858   -3.1891 H         1 UNK         0.0906 
     73 H73        23.5454   -6.0622   -4.3125 H         1 UNK         0.0906 
     74 H74        22.4954   -4.6500   -4.1686 H         1 UNK         0.0906 
     75 H75        25.5345   -5.6457   -3.3460 H         1 UNK         0.3140 
     76 H76        25.8698   -4.9847   -0.6383 H         1 UNK         0.1085 
     77 H77        27.6097   -6.2400   -1.5662 H         1 UNK         0.0836 
     78 H78        28.3261   -4.6832   -1.3024 H         1 UNK         0.0836 
     79 H79        30.2374   -5.2708   -2.5269 H         1 UNK         0.0731 
     80 H80        30.3531   -5.7878   -4.1829 H         1 UNK         0.0731 
     81 H81        31.5449   -4.3441   -5.5966 H         1 UNK         0.1312 
     82 H82        31.7931   -0.1377   -4.8251 H         1 UNK         0.1406 
     83 H83        29.3909   -2.6465   -2.3013 H         1 UNK         0.1631 
     84 H84        30.6988   -0.2455   -1.6086 H         1 UNK         0.0717 
     85 H85        30.6827    0.8490   -2.9643 H         1 UNK         0.0717 
     86 H86        27.1860    2.0013   -3.1789 H         1 UNK         0.0934 
     87 H87        28.8521    2.1180   -3.6725 H         1 UNK         0.0934 
     88 H88        28.5159    0.2718   -5.3210 H         1 UNK         0.0739 
     89 H89        26.3027   -0.4772   -3.9346 H         1 UNK         0.3093 
     90 H90        24.1077   -1.6796   -6.4114 H         1 UNK         0.0818 
     91 H91        25.8464   -3.4141   -6.7262 H         1 UNK         0.0819 
     92 H92        26.1711   -3.4435   -5.0028 H         1 UNK         0.0819 
     93 H93        24.6071   -3.9789   -5.6199 H         1 UNK         0.0819 
     94 H94        24.6557   -2.1052   -3.5460 H         1 UNK         0.3041 
     95 H95        22.3906    0.3440   -2.4662 H         1 UNK         0.0784 
     96 H96        20.6042   -1.1615   -3.2857 H         1 UNK         0.0793 
     97 H97        21.5212   -2.5773   -2.7954 H         1 UNK         0.0793 
     98 H98        20.9068   -1.4563   -1.5813 H         1 UNK         0.0793 
     99 H99        23.5170   -2.1340   -1.3681 H         1 UNK         0.3024 
    100 H100       26.5423   -0.6066   -0.3293 H         1 UNK         0.1171 
    101 H101       25.0063    0.2065    1.4685 H         1 UNK         0.0786 
    102 H102       24.1780   -1.3444    1.4763 H         1 UNK         0.0786 
    103 H103       25.8696   -1.2372    1.9679 H         1 UNK         0.0786 
    104 H104       25.5222   -3.1316    0.3536 H         1 UNK         0.2977 
    105 H105       25.4140    1.9954   -5.4182 H         1 UNK         0.3127 
    106 H106       26.2971    4.3390   -6.7802 H         1 UNK         0.0770 
    107 H107       23.5289    3.0196   -6.6543 H         1 UNK         0.0814 
    108 H108       23.8499    4.6576   -7.2070 H         1 UNK         0.0814 
    109 H109       24.1542    4.2295   -5.5323 H         1 UNK         0.0814 
    110 H110       25.5777    1.1055   -7.9622 H         1 UNK         0.2983 
    111 H111       25.5537    1.9936  -10.8088 H         1 UNK         0.0947 
    112 H112       24.9749   -0.7385   -9.5381 H         1 UNK         0.0806 
    113 H113       24.8810   -0.3581  -11.2523 H         1 UNK         0.0806 
    114 H114       23.7678    0.4029  -10.1271 H         1 UNK         0.0806 
    115 H115       27.3054   -0.0581   -8.4519 H         1 UNK         0.3000 
    116 H116       29.2537   -1.0476  -10.2642 H         1 UNK         0.0850 
    117 H117       30.3732   -1.8741   -8.2265 H         1 UNK         0.0810 
    118 H118       28.6426   -2.1358   -8.0889 H         1 UNK         0.0810 
    119 H119       29.4086   -0.8135   -7.2116 H         1 UNK         0.0810 
    120 H120       29.2967    1.8108   -8.1141 H         1 UNK         0.3040 
    121 H121       30.6046    3.5413   -7.8423 H         1 UNK         0.0766 
    122 H122       31.6521    3.0578  -10.6893 H         1 UNK         0.0812 
    123 H123       31.7416    4.5687   -9.7813 H         1 UNK         0.0812 
    124 H124       30.1868    3.9382  -10.2799 H         1 UNK         0.0812 
    125 H125       33.4316    3.3993   -9.3983 H         1 UNK         0.3205 
    126 H126       34.9658    2.2347   -7.1856 H         1 UNK         0.0754 
    127 H127       36.9202    2.8963   -8.5883 H         1 UNK         0.0769 
    128 H128       35.8276    4.2538   -8.3708 H         1 UNK         0.0769 
    129 H129       35.8498    3.3735   -9.8990 H         1 UNK         0.0769 
    130 H130       35.5744    0.1264   -7.1121 H         1 UNK         0.2981 
    131 H131       34.4054   -1.7049   -8.8928 H         1 UNK         0.0541 
    132 H132       38.0842   -1.3766  -10.5447 H         1 UNK         0.3459 
    133 H133       37.5081   -0.2067   -9.3828 H         1 UNK         0.3459 
    134 H134       36.5342   -2.4311   -6.8411 H         1 UNK         0.0612 
    135 H135       35.2767   -3.4594   -7.4733 H         1 UNK         0.0612 
    136 H136       32.7031   -2.9234   -7.1519 H         1 UNK         0.0624 
    137 H137       32.5618   -1.1794   -7.0497 H         1 UNK         0.0624 
@<TRIPOS>BOND
     1    1    2 1    
     2    1   72 1    
     3    1   73 1    
     4    1   74 1    
     5    2    3 2    
     6    2    4 am   BACKBONE|DICT|INTERRES
     7    4    5 1    
     8    4   75 1    
     9    5    6 1    
    10    5   35 1    
    11    5   76 1    
    12    6    7 1    
    13    6   77 1    
    14    6   78 1    
    15    7    8 1    
    16    8    9 1    
    17    8   79 1    
    18    8   80 1    
    19    9   10 ar   
    20    9   14 ar   
    21   10   11 ar   
    22   10   81 1    
    23   11   12 ar   
    24   11   71 1    
    25   12   13 ar   
    26   12   82 1    
    27   13   14 ar   
    28   13   15 1    
    29   14   83 1    
    30   15   16 1    
    31   15   84 1    
    32   15   85 1    
    33   16   17 1    
    34   17   18 1    
    35   17   86 1    
    36   17   87 1    
    37   18   19 1    
    38   18   37 1    
    39   18   88 1    
    40   19   20 am   BACKBONE|DICT|INTERRES
    41   19   89 1    
    42   20   21 2    
    43   20   22 1    
    44   22   23 1    
    45   22   24 1    
    46   22   90 1    
    47   23   91 1    
    48   23   92 1    
    49   23   93 1    
    50   24   25 am   BACKBONE|DICT|INTERRES
    51   24   94 1    
    52   25   26 2    
    53   25   27 1    
    54   27   28 1    
    55   27   29 1    
    56   27   95 1    
    57   28   96 1    
    58   28   97 1    
    59   28   98 1    
    60   29   30 am   BACKBONE|DICT|INTERRES
    61   29   99 1    
    62   30   31 2    
    63   30   32 1    
    64   32   33 1    
    65   32   34 1    
    66   32  100 1    
    67   33  101 1    
    68   33  102 1    
    69   33  103 1    
    70   34   35 am   BACKBONE|DICT|INTERRES
    71   34  104 1    
    72   35   36 2    
    73   37   38 2    
    74   37   39 am   BACKBONE|DICT|INTERRES
    75   39   40 1    
    76   39  105 1    
    77   40   41 1    
    78   40   42 1    
    79   40  106 1    
    80   41  107 1    
    81   41  108 1    
    82   41  109 1    
    83   42   43 2    
    84   42   44 am   BACKBONE|DICT|INTERRES
    85   44   45 1    
    86   44  110 1    
    87   45   46 1    
    88   45   47 1    
    89   45  111 1    
    90   46  112 1    
    91   46  113 1    
    92   46  114 1    
    93   47   48 2    
    94   47   49 am   BACKBONE|DICT|INTERRES
    95   49   50 1    
    96   49  115 1    
    97   50   51 1    
    98   50   52 1    
    99   50  116 1    
   100   51  117 1    
   101   51  118 1    
   102   51  119 1    
   103   52   53 2    
   104   52   54 am   BACKBONE|DICT|INTERRES
   105   54   55 1    
   106   54  120 1    
   107   55   56 1    
   108   55   57 1    
   109   55  121 1    
   110   56  122 1    
   111   56  123 1    
   112   56  124 1    
   113   57   58 2    
   114   57   59 am   BACKBONE|DICT|INTERRES
   115   59   60 1    
   116   59  125 1    
   117   60   61 1    
   118   60   62 1    
   119   60  126 1    
   120   61  127 1    
   121   61  128 1    
   122   61  129 1    
   123   62   63 2    
   124   62   64 am   BACKBONE|DICT|INTERRES
   125   64   65 1    
   126   64  130 1    
   127   65   66 1    
   128   65   69 1    
   129   65  131 1    
   130   66   67 am   BACKBONE|DICT|INTERRES
   131   66   68 2    
   132   67  132 1    
   133   67  133 1    
   134   69   70 1    
   135   69  134 1    
   136   69  135 1    
   137   70   71 1    
   138   71  136 1    
   139   71  137 1    
@<TRIPOS>SUBSTRUCTURE
     1 UNK         1 GROUP             0       ****    0 ROOT    
