@<TRIPOS>MOLECULE
3R137
137   139    1
SMALL
USER_CHARGES


@<TRIPOS>ATOM
      1 CA         28.6876   -5.3494   -7.6157 C.3       0 UNK        -0.2020 
      2 C          28.6065   -5.7147   -6.1411 C.2       0 UNK         0.4855 
      3 O          28.6002   -6.8991   -5.8035 O.2       0 UNK        -0.5197 
      4 N          28.5509   -4.7052   -5.2658 N.am      1 UNK        -0.4892 
      5 CA         28.3815   -4.8547   -3.8203 C.3       1 UNK         0.0835 
      6 C6         29.1310   -3.7216   -3.0733 C.3       12 UNK        -0.0855 
      7 S7         29.7073   -4.2265   -1.4167 S.3       12 UNK        -0.2931 
      8 C8         31.2228   -3.2187   -1.2419 C.3       12 UNK         0.0378 
      9 C9         30.9909   -1.7214   -1.4372 C.ar      12 UNK        -0.0802 
     10 C10        31.9247   -0.9593   -2.1471 C.ar      12 UNK        -0.0944 
     11 C11        31.7162    0.4070   -2.3648 C.ar      12 UNK        -0.0787 
     12 C12        30.5682    1.0155   -1.8497 C.ar      12 UNK        -0.0862 
     13 C13        29.6283    0.2660   -1.1349 C.ar      12 UNK        -0.0733 
     14 C14        29.8539   -1.0940   -0.9180 C.ar      12 UNK        -0.0832 
     15 C15        28.3507    0.9066   -0.6160 C.3       12 UNK         0.0240 
     16 S16        26.9534    0.5897   -1.7423 S.3       12 UNK        -0.2522 
     17 C17        27.4364    1.5860   -3.1879 C.3       12 UNK        -0.0967 
     18 CA         27.9646    0.7183   -4.3672 C.3       5 UNK         0.0660 
     19 N          26.8929   -0.1023   -4.9306 N.am      5 UNK        -0.4015 
     20 C          27.0225   -1.2541   -5.5988 C.2       4 UNK         0.4946 
     21 O          28.0787   -1.8776   -5.7381 O.2       4 UNK        -0.5353 
     22 CA         25.7125   -1.8033   -6.1852 C.3       4 UNK         0.0277 
     23 CB         25.9309   -2.9189   -7.2221 C.3       4 UNK        -0.1981 
     24 N          24.8363   -2.2886   -5.1174 N.am      4 UNK        -0.4209 
     25 C          23.9963   -1.5160   -4.4123 C.2       3 UNK         0.4942 
     26 O          23.8949   -0.3006   -4.5899 O.2       3 UNK        -0.5208 
     27 CA         23.1155   -2.1895   -3.3429 C.3       3 UNK         0.0250 
     28 CB         21.7196   -2.4879   -3.9138 C.3       3 UNK        -0.1990 
     29 N          23.6929   -3.4287   -2.8185 N.am      3 UNK        -0.4232 
     30 C          24.6444   -3.4803   -1.8774 C.2       2 UNK         0.4993 
     31 O          25.0778   -2.4917   -1.2865 O.2       2 UNK        -0.5286 
     32 CA         25.2483   -4.8604   -1.5536 C.3       2 UNK         0.0209 
     33 CB         24.3424   -6.0568   -1.9278 C.3       2 UNK        -0.1931 
     34 N          26.5796   -4.9905   -2.1588 N.am      2 UNK        -0.4546 
     35 C          26.8789   -4.8915   -3.4620 C.2       1 UNK         0.5154 
     36 O          26.0211   -4.7999   -4.3462 O.2       1 UNK        -0.5181 
     37 C          28.6155    1.5522   -5.4962 C.2       5 UNK         0.5014 
     38 O          29.0678    0.9890   -6.4932 O.2       5 UNK        -0.5248 
     39 N          28.6384    2.8849   -5.3457 N.am      6 UNK        -0.4434 
     40 CA         29.1892    3.8386   -6.3129 C.3       6 UNK         0.0363 
     41 CB         29.4117    5.1881   -5.6105 C.3       6 UNK        -0.1936 
     42 C          28.3303    4.0174   -7.5803 C.2       6 UNK         0.5081 
     43 O          28.7664    4.7103   -8.5004 O.2       6 UNK        -0.5248 
     44 N          27.1424    3.3951   -7.6265 N.am      7 UNK        -0.4718 
     45 CA         26.2616    3.3083   -8.7939 C.3       7 UNK         0.0273 
     46 CB         25.0135    2.4900   -8.4220 C.3       7 UNK        -0.1935 
     47 C          27.0009    2.6758   -9.9851 C.2       7 UNK         0.5018 
     48 O          27.3975    1.5123   -9.8991 O.2       7 UNK        -0.5186 
     49 N          27.2478    3.4863  -11.0252 N.am      8 UNK        -0.4240 
     50 CA         28.0840    3.1884  -12.1984 C.3       8 UNK         0.0235 
     51 CB         27.4238    2.1013  -13.0742 C.3       8 UNK        -0.2000 
     52 C          29.5534    2.8516  -11.8521 C.2       8 UNK         0.4941 
     53 O          30.2274    2.2032  -12.6543 O.2       8 UNK        -0.5273 
     54 N          30.0185    3.2888  -10.6688 N.am      9 UNK        -0.4262 
     55 CA         31.3201    3.0042  -10.0534 C.3       9 UNK         0.0264 
     56 CB         32.4480    3.7384  -10.8095 C.3       9 UNK        -0.1955 
     57 C          31.5924    1.4952   -9.8756 C.2       9 UNK         0.5031 
     58 O          32.7266    1.0581  -10.0800 O.2       9 UNK        -0.5390 
     59 N          30.5478    0.7258   -9.5288 N.am      10 UNK        -0.4204 
     60 CA         30.5899   -0.7302   -9.3883 C.3       10 UNK         0.0237 
     61 CB         29.1590   -1.2841   -9.2630 C.3       10 UNK        -0.1985 
     62 C          31.4973   -1.1963   -8.2372 C.2       10 UNK         0.4970 
     63 O          32.5674   -1.7444   -8.5042 O.2       10 UNK        -0.4914 
     64 N          31.0470   -0.9911   -6.9919 N.am      11 UNK        -0.4285 
     65 CA         31.7319   -1.3526   -5.7354 C.3       11 UNK         0.1007 
     66 C          32.0949   -2.8621   -5.5576 C.2       11 UNK         0.5703 
     67 N          31.5891   -3.7751   -6.3762 N.am      11 UNK        -0.7361 
     68 O          32.8193   -3.2245   -4.6341 O.2       11 UNK        -0.4986 
     69 C69        32.9323   -0.4072   -5.4375 C.3       12 UNK        -0.0947 
     70 S70        32.3825    1.2579   -4.9335 S.3       12 UNK        -0.2240 
     71 C71        32.7327    1.2328   -3.1437 C.3       12 UNK         0.0194 
     72 H72        29.5883   -5.7718   -8.0602 H         1 UNK         0.0906 
     73 H73        27.8242   -5.7468   -8.1485 H         1 UNK         0.0906 
     74 H74        28.7088   -4.2704   -7.7623 H         1 UNK         0.0906 
     75 H75        28.4888   -3.7439   -5.5968 H         1 UNK         0.3140 
     76 H76        28.8090   -5.8145   -3.5214 H         1 UNK         0.1085 
     77 H77        28.5264   -2.8146   -2.9961 H         1 UNK         0.0836 
     78 H78        30.0139   -3.4302   -3.6423 H         1 UNK         0.0836 
     79 H79        31.9626   -3.5859   -1.9553 H         1 UNK         0.0731 
     80 H80        31.6424   -3.3822   -0.2487 H         1 UNK         0.0731 
     81 H81        32.8126   -1.4345   -2.5400 H         1 UNK         0.1312 
     82 H82        30.4039    2.0710   -2.0162 H         1 UNK         0.1406 
     83 H83        29.1228   -1.6703   -0.3673 H         1 UNK         0.1631 
     84 H84        28.4812    1.9809   -0.4767 H         1 UNK         0.0717 
     85 H85        28.1093    0.5003    0.3674 H         1 UNK         0.0717 
     86 H86        28.1807    2.3100   -2.8553 H         1 UNK         0.0934 
     87 H87        26.5656    2.1687   -3.4954 H         1 UNK         0.0934 
     88 H88        28.7449    0.0543   -3.9884 H         1 UNK         0.0739 
     89 H89        25.9523    0.2584   -4.8221 H         1 UNK         0.3093 
     90 H90        25.2234   -0.9789   -6.7094 H         1 UNK         0.0818 
     91 H91        26.3317   -3.8227   -6.7685 H         1 UNK         0.0819 
     92 H92        24.9957   -3.1850   -7.7144 H         1 UNK         0.0819 
     93 H93        26.6267   -2.6014   -7.9995 H         1 UNK         0.0819 
     94 H94        24.9617   -3.2621   -4.8511 H         1 UNK         0.3041 
     95 H95        22.9996   -1.4796   -2.5208 H         1 UNK         0.0784 
     96 H96        21.2491   -1.5777   -4.2888 H         1 UNK         0.0793 
     97 H97        21.7635   -3.1968   -4.7417 H         1 UNK         0.0793 
     98 H98        21.0591   -2.9012   -3.1513 H         1 UNK         0.0793 
     99 H99        23.4193   -4.2903   -3.2691 H         1 UNK         0.3024 
    100 H100       25.3900   -4.8823   -0.4716 H         1 UNK         0.1171 
    101 H101       24.7722   -6.9931   -1.5717 H         1 UNK         0.0786 
    102 H102       23.3588   -5.9625   -1.4653 H         1 UNK         0.0786 
    103 H103       24.1938   -6.1569   -3.0031 H         1 UNK         0.0786 
    104 H104       27.3552   -5.0082   -1.5078 H         1 UNK         0.2977 
    105 H105       28.2366    3.2865   -4.5115 H         1 UNK         0.3127 
    106 H106       30.1612    3.4620   -6.6393 H         1 UNK         0.0770 
    107 H107       28.4744    5.6200   -5.2576 H         1 UNK         0.0814 
    108 H108       29.8680    5.9114   -6.2879 H         1 UNK         0.0814 
    109 H109       30.0803    5.0854   -4.7555 H         1 UNK         0.0814 
    110 H110       26.8855    2.8307   -6.8319 H         1 UNK         0.2983 
    111 H111       25.9472    4.3205   -9.0571 H         1 UNK         0.0947 
    112 H112       24.3334    2.4102   -9.2711 H         1 UNK         0.0806 
    113 H113       24.4595    2.9561   -7.6070 H         1 UNK         0.0806 
    114 H114       25.2713    1.4749   -8.1158 H         1 UNK         0.0806 
    115 H115       26.9092    4.4376  -10.9714 H         1 UNK         0.3000 
    116 H116       28.1212    4.1070  -12.7858 H         1 UNK         0.0850 
    117 H117       27.9550    1.9818  -14.0192 H         1 UNK         0.0810 
    118 H118       26.3923    2.3575  -13.3156 H         1 UNK         0.0810 
    119 H119       27.4216    1.1296  -12.5790 H         1 UNK         0.0810 
    120 H120       29.3884    3.8304  -10.0812 H         1 UNK         0.3040 
    121 H121       31.2776    3.4202   -9.0459 H         1 UNK         0.0766 
    122 H122       32.2393    4.8047  -10.8947 H         1 UNK         0.0812 
    123 H123       32.5847    3.3411  -11.8158 H         1 UNK         0.0812 
    124 H124       33.4003    3.6370  -10.2875 H         1 UNK         0.0812 
    125 H125       29.6425    1.1601   -9.3936 H         1 UNK         0.3205 
    126 H126       31.0126   -1.1313  -10.3120 H         1 UNK         0.0754 
    127 H127       29.1670   -2.3674   -9.1449 H         1 UNK         0.0769 
    128 H128       28.5735   -1.0624  -10.1556 H         1 UNK         0.0769 
    129 H129       28.6266   -0.8623   -8.4100 H         1 UNK         0.0769 
    130 H130       30.1702   -0.4876   -6.8718 H         1 UNK         0.2981 
    131 H131       30.9830   -1.1868   -4.9599 H         1 UNK         0.0541 
    132 H132       31.8305   -4.7428   -6.2390 H         1 UNK         0.3459 
    133 H133       31.0200   -3.4928   -7.1552 H         1 UNK         0.3459 
    134 H134       33.5803   -0.8020   -4.6550 H         1 UNK         0.0612 
    135 H135       33.5719   -0.3104   -6.3157 H         1 UNK         0.0612 
    136 H136       32.7268    2.2607   -2.7781 H         1 UNK         0.0624 
    137 H137       33.7428    0.8596   -2.9685 H         1 UNK         0.0624 
@<TRIPOS>BOND
     1    1    2 1    
     2    1   72 1    
     3    1   73 1    
     4    1   74 1    
     5    2    3 2    
     6    2    4 am   BACKBONE|DICT|INTERRES
     7    4    5 1    
     8    4   75 1    
     9    5    6 1    
    10    5   35 1    
    11    5   76 1    
    12    6    7 1    
    13    6   77 1    
    14    6   78 1    
    15    7    8 1    
    16    8    9 1    
    17    8   79 1    
    18    8   80 1    
    19    9   10 ar   
    20    9   14 ar   
    21   10   11 ar   
    22   10   81 1    
    23   11   12 ar   
    24   11   71 1    
    25   12   13 ar   
    26   12   82 1    
    27   13   14 ar   
    28   13   15 1    
    29   14   83 1    
    30   15   16 1    
    31   15   84 1    
    32   15   85 1    
    33   16   17 1    
    34   17   18 1    
    35   17   86 1    
    36   17   87 1    
    37   18   19 1    
    38   18   37 1    
    39   18   88 1    
    40   19   20 am   BACKBONE|DICT|INTERRES
    41   19   89 1    
    42   20   21 2    
    43   20   22 1    
    44   22   23 1    
    45   22   24 1    
    46   22   90 1    
    47   23   91 1    
    48   23   92 1    
    49   23   93 1    
    50   24   25 am   BACKBONE|DICT|INTERRES
    51   24   94 1    
    52   25   26 2    
    53   25   27 1    
    54   27   28 1    
    55   27   29 1    
    56   27   95 1    
    57   28   96 1    
    58   28   97 1    
    59   28   98 1    
    60   29   30 am   BACKBONE|DICT|INTERRES
    61   29   99 1    
    62   30   31 2    
    63   30   32 1    
    64   32   33 1    
    65   32   34 1    
    66   32  100 1    
    67   33  101 1    
    68   33  102 1    
    69   33  103 1    
    70   34   35 am   BACKBONE|DICT|INTERRES
    71   34  104 1    
    72   35   36 2    
    73   37   38 2    
    74   37   39 am   BACKBONE|DICT|INTERRES
    75   39   40 1    
    76   39  105 1    
    77   40   41 1    
    78   40   42 1    
    79   40  106 1    
    80   41  107 1    
    81   41  108 1    
    82   41  109 1    
    83   42   43 2    
    84   42   44 am   BACKBONE|DICT|INTERRES
    85   44   45 1    
    86   44  110 1    
    87   45   46 1    
    88   45   47 1    
    89   45  111 1    
    90   46  112 1    
    91   46  113 1    
    92   46  114 1    
    93   47   48 2    
    94   47   49 am   BACKBONE|DICT|INTERRES
    95   49   50 1    
    96   49  115 1    
    97   50   51 1    
    98   50   52 1    
    99   50  116 1    
   100   51  117 1    
   101   51  118 1    
   102   51  119 1    
   103   52   53 2    
   104   52   54 am   BACKBONE|DICT|INTERRES
   105   54   55 1    
   106   54  120 1    
   107   55   56 1    
   108   55   57 1    
   109   55  121 1    
   110   56  122 1    
   111   56  123 1    
   112   56  124 1    
   113   57   58 2    
   114   57   59 am   BACKBONE|DICT|INTERRES
   115   59   60 1    
   116   59  125 1    
   117   60   61 1    
   118   60   62 1    
   119   60  126 1    
   120   61  127 1    
   121   61  128 1    
   122   61  129 1    
   123   62   63 2    
   124   62   64 am   BACKBONE|DICT|INTERRES
   125   64   65 1    
   126   64  130 1    
   127   65   66 1    
   128   65   69 1    
   129   65  131 1    
   130   66   67 am   BACKBONE|DICT|INTERRES
   131   66   68 2    
   132   67  132 1    
   133   67  133 1    
   134   69   70 1    
   135   69  134 1    
   136   69  135 1    
   137   70   71 1    
   138   71  136 1    
   139   71  137 1    
@<TRIPOS>SUBSTRUCTURE
     1 UNK         1 GROUP             0       ****    0 ROOT    
