@<TRIPOS>MOLECULE
3R137
137   139    1
SMALL
USER_CHARGES


@<TRIPOS>ATOM
      1 CA         27.8099   -7.4395   -2.6683 C.3       0 UNK        -0.2020 
      2 C          27.3257   -6.2324   -1.8787 C.2       0 UNK         0.4855 
      3 O          26.3979   -6.3565   -1.0780 O.2       0 UNK        -0.5197 
      4 N          27.9535   -5.0694   -2.0909 N.am      1 UNK        -0.4892 
      5 CA         27.5876   -3.7919   -1.4663 C.3       1 UNK         0.0835 
      6 C6         28.7291   -2.7525   -1.5749 C.3       12 UNK        -0.0855 
      7 S7         30.2693   -3.3413   -0.7873 S.3       12 UNK        -0.2931 
      8 C8         31.2152   -1.7927   -0.6018 C.3       12 UNK         0.0378 
      9 C9         31.3061   -1.0125   -1.9064 C.ar      12 UNK        -0.0802 
     10 C10        31.8653   -1.6003   -3.0438 C.ar      12 UNK        -0.0944 
     11 C11        31.8982   -0.9096   -4.2572 C.ar      12 UNK        -0.0787 
     12 C12        31.3710    0.3842   -4.3286 C.ar      12 UNK        -0.0862 
     13 C13        30.8294    0.9951   -3.1906 C.ar      12 UNK        -0.0733 
     14 C14        30.8126    0.2925   -1.9803 C.ar      12 UNK        -0.0832 
     15 C15        30.2909    2.4219   -3.2748 C.3       12 UNK         0.0240 
     16 S16        28.7036    2.6900   -2.4007 S.3       12 UNK        -0.2522 
     17 C17        27.6406    1.3203   -2.9775 C.3       12 UNK        -0.0967 
     18 CA         27.4612    1.2562   -4.5124 C.3       5 UNK         0.0660 
     19 N          27.0518   -0.0755   -4.9481 N.am      5 UNK        -0.4015 
     20 C          27.2511   -0.5586   -6.1805 C.2       4 UNK         0.4946 
     21 O          27.8380    0.0568   -7.0713 O.2       4 UNK        -0.5353 
     22 CA         26.6714   -1.9518   -6.4740 C.3       4 UNK         0.0277 
     23 CB         27.6838   -3.0437   -6.0918 C.3       4 UNK        -0.1981 
     24 N          25.3981   -2.1880   -5.7836 N.am      4 UNK        -0.4209 
     25 C          24.2645   -1.5303   -6.0743 C.2       3 UNK         0.4942 
     26 O          24.1753   -0.6964   -6.9731 O.2       3 UNK        -0.5208 
     27 CA         23.0305   -1.7983   -5.1966 C.3       3 UNK         0.0250 
     28 CB         22.2055   -2.9582   -5.7755 C.3       3 UNK        -0.1990 
     29 N          23.3323   -2.0718   -3.7909 N.am      3 UNK        -0.4232 
     30 C          24.0455   -1.2946   -2.9630 C.2       2 UNK         0.4993 
     31 O          24.5653   -0.2274   -3.2953 O.2       2 UNK        -0.5286 
     32 CA         24.2533   -1.8215   -1.5301 C.3       2 UNK         0.0209 
     33 CB         23.1875   -2.8518   -1.0926 C.3       2 UNK        -0.1931 
     34 N          25.5941   -2.3784   -1.2957 N.am      2 UNK        -0.4546 
     35 C          26.2767   -3.2408   -2.0670 C.2       1 UNK         0.5154 
     36 O          25.9242   -3.5922   -3.1979 O.2       1 UNK        -0.5181 
     37 C          26.4906    2.3259   -5.0430 C.2       5 UNK         0.5014 
     38 O          26.9469    3.3670   -5.5147 O.2       5 UNK        -0.5248 
     39 N          25.1806    2.0328   -5.0186 N.am      6 UNK        -0.4434 
     40 CA         24.1264    2.8814   -5.5867 C.3       6 UNK         0.0363 
     41 CB         22.7480    2.2955   -5.2456 C.3       6 UNK        -0.1936 
     42 C          24.2691    3.0852   -7.1071 C.2       6 UNK         0.5081 
     43 O          24.0609    4.1975   -7.5914 O.2       6 UNK        -0.5248 
     44 N          24.6600    2.0228   -7.8251 N.am      7 UNK        -0.4718 
     45 CA         24.9954    2.0506   -9.2524 C.3       7 UNK         0.0273 
     46 CB         24.9548    0.6144   -9.8008 C.3       7 UNK        -0.1935 
     47 C          26.3636    2.6919   -9.5563 C.2       7 UNK         0.5018 
     48 O          26.6402    2.9625  -10.7257 O.2       7 UNK        -0.5186 
     49 N          27.1888    2.9057   -8.5194 N.am      8 UNK        -0.4240 
     50 CA         28.5605    3.4226   -8.5512 C.3       8 UNK         0.0235 
     51 CB         28.5785    4.9049   -8.9820 C.3       8 UNK        -0.2000 
     52 C          29.5007    2.5324   -9.3849 C.2       8 UNK         0.4941 
     53 O          30.1997    3.0292  -10.2718 O.2       8 UNK        -0.5273 
     54 N          29.4824    1.2232   -9.0964 N.am      9 UNK        -0.4262 
     55 CA         30.3279    0.2152   -9.7378 C.3       9 UNK         0.0264 
     56 CB         29.8720   -1.1821   -9.2837 C.3       9 UNK        -0.1955 
     57 C          31.8212    0.4160   -9.4247 C.2       9 UNK         0.5031 
     58 O          32.1691    0.9121   -8.3507 O.2       9 UNK        -0.5390 
     59 N          32.6759   -0.0301  -10.3545 N.am      10 UNK        -0.4204 
     60 CA         34.1402    0.0256  -10.2560 C.3       10 UNK         0.0237 
     61 CB         34.7335   -0.1017  -11.6705 C.3       10 UNK        -0.1985 
     62 C          34.7549   -1.0271   -9.3094 C.2       10 UNK         0.4970 
     63 O          35.9737   -1.0256   -9.1321 O.2       10 UNK        -0.4914 
     64 N          33.9184   -1.9073   -8.7424 N.am      11 UNK        -0.4285 
     65 CA         34.2713   -2.9978   -7.8165 C.3       11 UNK         0.1007 
     66 C          34.9997   -4.2048   -8.4831 C.2       11 UNK         0.5703 
     67 N          35.0462   -4.3046   -9.8065 N.am      11 UNK        -0.7361 
     68 O          35.5031   -5.0874   -7.7916 O.2       11 UNK        -0.4986 
     69 C69        34.9927   -2.5201   -6.5182 C.3       12 UNK        -0.0947 
     70 S70        34.2545   -1.0842   -5.6620 S.3       12 UNK        -0.2240 
     71 C71        32.5117   -1.5688   -5.4818 C.3       12 UNK         0.0194 
     72 H72        28.1370   -8.2261   -1.9889 H         1 UNK         0.0906 
     73 H73        27.0009   -7.8338   -3.2828 H         1 UNK         0.0906 
     74 H74        28.6434   -7.1903   -3.3248 H         1 UNK         0.0906 
     75 H75        28.7072   -5.0239   -2.7608 H         1 UNK         0.3140 
     76 H76        27.4040   -3.9853   -0.4066 H         1 UNK         0.1085 
     77 H77        28.4409   -1.8134   -1.0985 H         1 UNK         0.0836 
     78 H78        28.9379   -2.5160   -2.6204 H         1 UNK         0.0836 
     79 H79        32.2219   -2.0291   -0.2548 H         1 UNK         0.0731 
     80 H80        30.7517   -1.1908    0.1815 H         1 UNK         0.0731 
     81 H81        32.2615   -2.6050   -2.9851 H         1 UNK         0.1312 
     82 H82        31.4007    0.9173   -5.2700 H         1 UNK         0.1406 
     83 H83        30.3958    0.7589   -1.0979 H         1 UNK         0.1631 
     84 H84        30.1769    2.7326   -4.3142 H         1 UNK         0.0717 
     85 H85        31.0346    3.0937   -2.8445 H         1 UNK         0.0717 
     86 H86        28.0831    0.3912   -2.6166 H         1 UNK         0.0934 
     87 H87        26.6750    1.3911   -2.4725 H         1 UNK         0.0934 
     88 H88        28.4275    1.4459   -4.9802 H         1 UNK         0.0739 
     89 H89        26.4770   -0.6032   -4.3043 H         1 UNK         0.3093 
     90 H90        26.4905   -2.0139   -7.5493 H         1 UNK         0.0818 
     91 H91        27.9159   -3.0274   -5.0264 H         1 UNK         0.0819 
     92 H92        27.3075   -4.0369   -6.3368 H         1 UNK         0.0819 
     93 H93        28.6226   -2.9103   -6.6310 H         1 UNK         0.0819 
     94 H94        25.4106   -2.8278   -4.9934 H         1 UNK         0.3041 
     95 H95        22.4112   -0.9008   -5.2196 H         1 UNK         0.0784 
     96 H96        21.9458   -2.7697   -6.8184 H         1 UNK         0.0793 
     97 H97        22.7540   -3.9005   -5.7412 H         1 UNK         0.0793 
     98 H98        21.2706   -3.0924   -5.2310 H         1 UNK         0.0793 
     99 H99        22.9911   -2.9484   -3.4243 H         1 UNK         0.3024 
    100 H100       24.1548   -0.9501   -0.8801 H         1 UNK         0.1171 
    101 H101       23.2720   -3.0682   -0.0275 H         1 UNK         0.0786 
    102 H102       22.1770   -2.4750   -1.2585 H         1 UNK         0.0786 
    103 H103       23.2852   -3.7996   -1.6238 H         1 UNK         0.0786 
    104 H104       26.0067   -2.1178   -0.4105 H         1 UNK         0.2977 
    105 H105       24.8859    1.1728   -4.5616 H         1 UNK         0.3127 
    106 H106       24.2070    3.8614   -5.1117 H         1 UNK         0.0770 
    107 H107       22.5809    1.3447   -5.7504 H         1 UNK         0.0814 
    108 H108       21.9519    2.9717   -5.5595 H         1 UNK         0.0814 
    109 H109       22.6347    2.1343   -4.1733 H         1 UNK         0.0814 
    110 H110       24.7180    1.1160   -7.3676 H         1 UNK         0.2983 
    111 H111       24.2378    2.6396   -9.7739 H         1 UNK         0.0947 
    112 H112       25.1628    0.5953  -10.8714 H         1 UNK         0.0806 
    113 H113       23.9743    0.1610   -9.6540 H         1 UNK         0.0806 
    114 H114       25.6946   -0.0216   -9.3123 H         1 UNK         0.0806 
    115 H115       26.8484    2.6610   -7.5980 H         1 UNK         0.3000 
    116 H116       28.9287    3.3749   -7.5251 H         1 UNK         0.0850 
    117 H117       29.5841    5.3202   -8.9058 H         1 UNK         0.0810 
    118 H118       27.9297    5.5081   -8.3469 H         1 UNK         0.0810 
    119 H119       28.2516    5.0327  -10.0143 H         1 UNK         0.0810 
    120 H120       28.8782    0.8907   -8.3457 H         1 UNK         0.3040 
    121 H121       30.1806    0.2998  -10.8165 H         1 UNK         0.0766 
    122 H122       30.4296   -1.9677   -9.7947 H         1 UNK         0.0812 
    123 H123       30.0156   -1.3211   -8.2112 H         1 UNK         0.0812 
    124 H124       28.8156   -1.3439   -9.5001 H         1 UNK         0.0812 
    125 H125       32.3006   -0.4334  -11.2018 H         1 UNK         0.3205 
    126 H126       34.4170    1.0049   -9.8594 H         1 UNK         0.0754 
    127 H127       35.8205   -0.0094  -11.6513 H         1 UNK         0.0769 
    128 H128       34.3591    0.6816  -12.3300 H         1 UNK         0.0769 
    129 H129       34.4970   -1.0652  -12.1237 H         1 UNK         0.0769 
    130 H130       32.9389   -1.8296   -8.9659 H         1 UNK         0.2981 
    131 H131       33.3122   -3.4152   -7.5110 H         1 UNK         0.0541 
    132 H132       34.6317   -3.5959  -10.3891 H         1 UNK         0.3459 
    133 H133       35.5098   -5.0958  -10.2247 H         1 UNK         0.3459 
    134 H134       35.0359   -3.3365   -5.7952 H         1 UNK         0.0612 
    135 H135       36.0308   -2.2661   -6.7380 H         1 UNK         0.0612 
    136 H136       31.9617   -1.2872   -6.3810 H         1 UNK         0.0624 
    137 H137       32.4360   -2.6536   -5.3934 H         1 UNK         0.0624 
@<TRIPOS>BOND
     1    1    2 1    
     2    1   72 1    
     3    1   73 1    
     4    1   74 1    
     5    2    3 2    
     6    2    4 am   BACKBONE|DICT|INTERRES
     7    4    5 1    
     8    4   75 1    
     9    5    6 1    
    10    5   35 1    
    11    5   76 1    
    12    6    7 1    
    13    6   77 1    
    14    6   78 1    
    15    7    8 1    
    16    8    9 1    
    17    8   79 1    
    18    8   80 1    
    19    9   10 ar   
    20    9   14 ar   
    21   10   11 ar   
    22   10   81 1    
    23   11   12 ar   
    24   11   71 1    
    25   12   13 ar   
    26   12   82 1    
    27   13   14 ar   
    28   13   15 1    
    29   14   83 1    
    30   15   16 1    
    31   15   84 1    
    32   15   85 1    
    33   16   17 1    
    34   17   18 1    
    35   17   86 1    
    36   17   87 1    
    37   18   19 1    
    38   18   37 1    
    39   18   88 1    
    40   19   20 am   BACKBONE|DICT|INTERRES
    41   19   89 1    
    42   20   21 2    
    43   20   22 1    
    44   22   23 1    
    45   22   24 1    
    46   22   90 1    
    47   23   91 1    
    48   23   92 1    
    49   23   93 1    
    50   24   25 am   BACKBONE|DICT|INTERRES
    51   24   94 1    
    52   25   26 2    
    53   25   27 1    
    54   27   28 1    
    55   27   29 1    
    56   27   95 1    
    57   28   96 1    
    58   28   97 1    
    59   28   98 1    
    60   29   30 am   BACKBONE|DICT|INTERRES
    61   29   99 1    
    62   30   31 2    
    63   30   32 1    
    64   32   33 1    
    65   32   34 1    
    66   32  100 1    
    67   33  101 1    
    68   33  102 1    
    69   33  103 1    
    70   34   35 am   BACKBONE|DICT|INTERRES
    71   34  104 1    
    72   35   36 2    
    73   37   38 2    
    74   37   39 am   BACKBONE|DICT|INTERRES
    75   39   40 1    
    76   39  105 1    
    77   40   41 1    
    78   40   42 1    
    79   40  106 1    
    80   41  107 1    
    81   41  108 1    
    82   41  109 1    
    83   42   43 2    
    84   42   44 am   BACKBONE|DICT|INTERRES
    85   44   45 1    
    86   44  110 1    
    87   45   46 1    
    88   45   47 1    
    89   45  111 1    
    90   46  112 1    
    91   46  113 1    
    92   46  114 1    
    93   47   48 2    
    94   47   49 am   BACKBONE|DICT|INTERRES
    95   49   50 1    
    96   49  115 1    
    97   50   51 1    
    98   50   52 1    
    99   50  116 1    
   100   51  117 1    
   101   51  118 1    
   102   51  119 1    
   103   52   53 2    
   104   52   54 am   BACKBONE|DICT|INTERRES
   105   54   55 1    
   106   54  120 1    
   107   55   56 1    
   108   55   57 1    
   109   55  121 1    
   110   56  122 1    
   111   56  123 1    
   112   56  124 1    
   113   57   58 2    
   114   57   59 am   BACKBONE|DICT|INTERRES
   115   59   60 1    
   116   59  125 1    
   117   60   61 1    
   118   60   62 1    
   119   60  126 1    
   120   61  127 1    
   121   61  128 1    
   122   61  129 1    
   123   62   63 2    
   124   62   64 am   BACKBONE|DICT|INTERRES
   125   64   65 1    
   126   64  130 1    
   127   65   66 1    
   128   65   69 1    
   129   65  131 1    
   130   66   67 am   BACKBONE|DICT|INTERRES
   131   66   68 2    
   132   67  132 1    
   133   67  133 1    
   134   69   70 1    
   135   69  134 1    
   136   69  135 1    
   137   70   71 1    
   138   71  136 1    
   139   71  137 1    
@<TRIPOS>SUBSTRUCTURE
     1 UNK         1 GROUP             0       ****    0 ROOT    
