@<TRIPOS>MOLECULE
3R137
137   139    1
SMALL
USER_CHARGES


@<TRIPOS>ATOM
      1 CA         28.1333   -0.3179    1.9955 C.3       0 UNK        -0.2020 
      2 C          28.2137   -1.1441    0.7208 C.2       0 UNK         0.4855 
      3 O          28.1559   -0.5853   -0.3743 O.2       0 UNK        -0.5197 
      4 N          28.3526   -2.4688    0.8549 N.am      1 UNK        -0.4892 
      5 CA         28.4251   -3.4206   -0.2570 C.3       1 UNK         0.0835 
      6 C6         29.0659   -4.7702    0.1674 C.3       12 UNK        -0.0855 
      7 S7         30.7457   -4.5665    0.8622 S.3       12 UNK        -0.2931 
      8 C8         31.8149   -4.9430   -0.5682 C.3       12 UNK         0.0378 
      9 C9         31.4962   -4.0587   -1.7657 C.ar      12 UNK        -0.0802 
     10 C10        31.6730   -2.6755   -1.6865 C.ar      12 UNK        -0.0944 
     11 C11        31.2966   -1.8445   -2.7443 C.ar      12 UNK        -0.0787 
     12 C12        30.7555   -2.4216   -3.9009 C.ar      12 UNK        -0.0862 
     13 C13        30.6322   -3.8136   -4.0246 C.ar      12 UNK        -0.0733 
     14 C14        30.9942   -4.6199   -2.9420 C.ar      12 UNK        -0.0832 
     15 C15        30.1297   -4.5114   -5.2925 C.3       12 UNK         0.0240 
     16 S16        29.7548   -3.4363   -6.7189 S.3       12 UNK        -0.2522 
     17 C17        28.1095   -2.8304   -6.2326 C.3       12 UNK        -0.0967 
     18 CA         27.5734   -1.7250   -7.1704 C.3       5 UNK         0.0660 
     19 N          26.1219   -1.5857   -7.0494 N.am      5 UNK        -0.4015 
     20 C          25.3411   -0.9170   -7.9084 C.2       4 UNK         0.4946 
     21 O          25.7551   -0.3683   -8.9290 O.2       4 UNK        -0.5353 
     22 CA         23.8501   -0.8123   -7.5469 C.3       4 UNK         0.0277 
     23 CB         23.0827   -2.0408   -8.0601 C.3       4 UNK        -0.1981 
     24 N          23.6259   -0.6540   -6.1066 N.am      4 UNK        -0.4209 
     25 C          24.0056    0.4218   -5.4016 C.2       3 UNK         0.4942 
     26 O          24.5465    1.4076   -5.8982 O.2       3 UNK        -0.5208 
     27 CA         23.7961    0.3686   -3.8806 C.3       3 UNK         0.0250 
     28 CB         22.3617    0.7833   -3.5161 C.3       3 UNK        -0.1990 
     29 N          24.1000   -0.9400   -3.2909 N.am      3 UNK        -0.4232 
     30 C          25.3022   -1.5311   -3.3267 C.2       2 UNK         0.4993 
     31 O          26.2797   -1.0735   -3.9258 O.2       2 UNK        -0.5286 
     32 CA         25.4280   -2.8768   -2.6091 C.3       2 UNK         0.0209 
     33 CB         25.2703   -4.0493   -3.5930 C.3       2 UNK        -0.1931 
     34 N          26.7374   -2.9292   -1.9680 N.am      2 UNK        -0.4546 
     35 C          27.0202   -3.6171   -0.8568 C.2       1 UNK         0.5154 
     36 O          26.2124   -4.3523   -0.2840 O.2       1 UNK        -0.5181 
     37 C          28.2838   -0.3752   -6.9518 C.2       5 UNK         0.5014 
     38 O          29.1953   -0.0404   -7.7086 O.2       5 UNK        -0.5248 
     39 N          27.8295    0.3964   -5.9556 N.am      6 UNK        -0.4434 
     40 CA         28.2969    1.7595   -5.7040 C.3       6 UNK         0.0363 
     41 CB         27.7642    2.2419   -4.3462 C.3       6 UNK        -0.1936 
     42 C          27.9262    2.7424   -6.8287 C.2       6 UNK         0.5081 
     43 O          28.7429    3.5961   -7.1723 O.2       6 UNK        -0.5248 
     44 N          26.7130    2.6112   -7.3803 N.am      7 UNK        -0.4718 
     45 CA         26.1946    3.4678   -8.4456 C.3       7 UNK         0.0273 
     46 CB         24.6609    3.3620   -8.4971 C.3       7 UNK        -0.1935 
     47 C          26.8102    3.1685   -9.8215 C.2       7 UNK         0.5018 
     48 O          27.3684    4.0766  -10.4386 O.2       7 UNK        -0.5186 
     49 N          26.6561    1.9269  -10.3024 N.am      8 UNK        -0.4240 
     50 CA         26.9724    1.5498  -11.6819 C.3       8 UNK         0.0235 
     51 CB         26.0077    0.4486  -12.1542 C.3       8 UNK        -0.2000 
     52 C          28.4279    1.1028  -11.8546 C.2       8 UNK         0.4941 
     53 O          29.0903    1.5601  -12.7867 O.2       8 UNK        -0.5273 
     54 N          28.8974    0.2088  -10.9739 N.am      9 UNK        -0.4262 
     55 CA         30.2382   -0.3827  -11.0542 C.3       9 UNK         0.0264 
     56 CB         30.2046   -1.8060  -10.4699 C.3       9 UNK        -0.1955 
     57 C          31.3213    0.4654  -10.3653 C.2       9 UNK         0.5031 
     58 O          32.5034    0.1499  -10.5130 O.2       9 UNK        -0.5390 
     59 N          30.9120    1.4881   -9.5976 N.am      10 UNK        -0.4204 
     60 CA         31.7441    2.3646   -8.7614 C.3       10 UNK         0.0237 
     61 CB         32.6006    3.2982   -9.6429 C.3       10 UNK        -0.1985 
     62 C          32.5789    1.5885   -7.7206 C.2       10 UNK         0.4970 
     63 O          33.6979    1.9976   -7.4054 O.2       10 UNK        -0.4914 
     64 N          32.0277    0.4658   -7.2381 N.am      11 UNK        -0.4285 
     65 CA         32.6854   -0.5285   -6.3739 C.3       11 UNK         0.1007 
     66 C          33.8937   -1.2658   -7.0314 C.2       11 UNK         0.5703 
     67 N          34.0699   -1.2227   -8.3481 N.am      11 UNK        -0.7361 
     68 O          34.6728   -1.9211   -6.3434 O.2       11 UNK        -0.4986 
     69 C69        33.0024    0.0128   -4.9474 C.3       12 UNK        -0.0947 
     70 S70        31.5181    0.6568   -4.1011 S.3       12 UNK        -0.2240 
     71 C71        31.4614   -0.3336   -2.5681 C.3       12 UNK         0.0194 
     72 H72        28.9423    0.4116    2.0202 H         1 UNK         0.0906 
     73 H73        27.1870    0.2211    2.0337 H         1 UNK         0.0906 
     74 H74        28.2078   -0.9371    2.8893 H         1 UNK         0.0906 
     75 H75        28.3908   -2.8780    1.7776 H         1 UNK         0.3140 
     76 H76        29.0518   -2.9833   -1.0346 H         1 UNK         0.1085 
     77 H77        28.4526   -5.2643    0.9235 H         1 UNK         0.0836 
     78 H78        29.1083   -5.4580   -0.6792 H         1 UNK         0.0836 
     79 H79        32.8573   -4.7972   -0.2816 H         1 UNK         0.0731 
     80 H80        31.7101   -5.9992   -0.8214 H         1 UNK         0.0731 
     81 H81        32.0651   -2.2425   -0.7759 H         1 UNK         0.1312 
     82 H82        30.4363   -1.7787   -4.7051 H         1 UNK         0.1406 
     83 H83        30.8772   -5.6931   -3.0149 H         1 UNK         0.1631 
     84 H84        29.2452   -5.1031   -5.0515 H         1 UNK         0.0717 
     85 H85        30.8931   -5.2215   -5.6139 H         1 UNK         0.0717 
     86 H86        27.4420   -3.6926   -6.2646 H         1 UNK         0.0934 
     87 H87        28.1258   -2.4991   -5.1928 H         1 UNK         0.0934 
     88 H88        27.7708   -2.0312   -8.2002 H         1 UNK         0.0739 
     89 H89        25.7048   -1.9506   -6.2067 H         1 UNK         0.3093 
     90 H90        23.4513    0.0720   -8.0483 H         1 UNK         0.0818 
     91 H91        22.0113   -1.9403   -7.8858 H         1 UNK         0.0819 
     92 H92        23.2232   -2.1655   -9.1349 H         1 UNK         0.0819 
     93 H93        23.4172   -2.9607   -7.5790 H         1 UNK         0.0819 
     94 H94        23.1752   -1.4157   -5.6207 H         1 UNK         0.3041 
     95 H95        24.4815    1.0930   -3.4350 H         1 UNK         0.0784 
     96 H96        22.1218    1.7628   -3.9326 H         1 UNK         0.0793 
     97 H97        21.6241    0.0769   -3.8992 H         1 UNK         0.0793 
     98 H98        22.2310    0.8533   -2.4360 H         1 UNK         0.0793 
     99 H99        23.3477   -1.3919   -2.7904 H         1 UNK         0.3024 
    100 H100       24.6500   -2.9384   -1.8442 H         1 UNK         0.1171 
    101 H101       24.3144   -4.0001   -4.1160 H         1 UNK         0.0786 
    102 H102       25.3041   -5.0071   -3.0733 H         1 UNK         0.0786 
    103 H103       26.0586   -4.0533   -4.3449 H         1 UNK         0.0786 
    104 H104       27.4115   -2.2675   -2.3359 H         1 UNK         0.2977 
    105 H105       27.1180    0.0262   -5.3309 H         1 UNK         0.3127 
    106 H106       29.3858    1.7342   -5.6531 H         1 UNK         0.0770 
    107 H107       26.6745    2.2772   -4.3293 H         1 UNK         0.0814 
    108 H108       28.1288    3.2443   -4.1187 H         1 UNK         0.0814 
    109 H109       28.0909    1.5857   -3.5387 H         1 UNK         0.0814 
    110 H110       26.0661    1.9366   -6.9805 H         1 UNK         0.2983 
    111 H111       26.4430    4.5022   -8.1966 H         1 UNK         0.0947 
    112 H112       24.2505    3.9912   -9.2882 H         1 UNK         0.0806 
    113 H113       24.2118    3.6881   -7.5588 H         1 UNK         0.0806 
    114 H114       24.3294    2.3405   -8.6856 H         1 UNK         0.0806 
    115 H115       26.2308    1.2076   -9.7183 H         1 UNK         0.3000 
    116 H116       26.8153    2.4152  -12.3303 H         1 UNK         0.0850 
    117 H117       26.1906    0.1933  -13.1989 H         1 UNK         0.0810 
    118 H118       24.9696    0.7721  -12.0769 H         1 UNK         0.0810 
    119 H119       26.1153   -0.4678  -11.5730 H         1 UNK         0.0810 
    120 H120       28.3000   -0.1000  -10.2185 H         1 UNK         0.3040 
    121 H121       30.5251   -0.4690  -12.1045 H         1 UNK         0.0766 
    122 H122       29.9851   -1.8074   -9.4035 H         1 UNK         0.0812 
    123 H123       29.4574   -2.4238  -10.9679 H         1 UNK         0.0812 
    124 H124       31.1684   -2.3009  -10.5974 H         1 UNK         0.0812 
    125 H125       29.9136    1.6032   -9.4896 H         1 UNK         0.3205 
    126 H126       31.0584    2.9892   -8.1899 H         1 UNK         0.0754 
    127 H127       33.1224    4.0401   -9.0371 H         1 UNK         0.0769 
    128 H128       31.9838    3.8424  -10.3582 H         1 UNK         0.0769 
    129 H129       33.3555    2.7452  -10.2028 H         1 UNK         0.0769 
    130 H130       31.0830    0.2310   -7.5322 H         1 UNK         0.2981 
    131 H131       31.9462   -1.3187   -6.2638 H         1 UNK         0.0541 
    132 H132       33.4512   -0.6885   -8.9490 H         1 UNK         0.3459 
    133 H133       34.8499   -1.7159   -8.7512 H         1 UNK         0.3459 
    134 H134       33.7466    0.8087   -4.9924 H         1 UNK         0.0612 
    135 H135       33.4405   -0.7726   -4.3295 H         1 UNK         0.0612 
    136 H136       32.3710   -0.1267   -2.0021 H         1 UNK         0.0624 
    137 H137       30.6306    0.0295   -1.9615 H         1 UNK         0.0624 
@<TRIPOS>BOND
     1    1    2 1    
     2    1   72 1    
     3    1   73 1    
     4    1   74 1    
     5    2    3 2    
     6    2    4 am   BACKBONE|DICT|INTERRES
     7    4    5 1    
     8    4   75 1    
     9    5    6 1    
    10    5   35 1    
    11    5   76 1    
    12    6    7 1    
    13    6   77 1    
    14    6   78 1    
    15    7    8 1    
    16    8    9 1    
    17    8   79 1    
    18    8   80 1    
    19    9   10 ar   
    20    9   14 ar   
    21   10   11 ar   
    22   10   81 1    
    23   11   12 ar   
    24   11   71 1    
    25   12   13 ar   
    26   12   82 1    
    27   13   14 ar   
    28   13   15 1    
    29   14   83 1    
    30   15   16 1    
    31   15   84 1    
    32   15   85 1    
    33   16   17 1    
    34   17   18 1    
    35   17   86 1    
    36   17   87 1    
    37   18   19 1    
    38   18   37 1    
    39   18   88 1    
    40   19   20 am   BACKBONE|DICT|INTERRES
    41   19   89 1    
    42   20   21 2    
    43   20   22 1    
    44   22   23 1    
    45   22   24 1    
    46   22   90 1    
    47   23   91 1    
    48   23   92 1    
    49   23   93 1    
    50   24   25 am   BACKBONE|DICT|INTERRES
    51   24   94 1    
    52   25   26 2    
    53   25   27 1    
    54   27   28 1    
    55   27   29 1    
    56   27   95 1    
    57   28   96 1    
    58   28   97 1    
    59   28   98 1    
    60   29   30 am   BACKBONE|DICT|INTERRES
    61   29   99 1    
    62   30   31 2    
    63   30   32 1    
    64   32   33 1    
    65   32   34 1    
    66   32  100 1    
    67   33  101 1    
    68   33  102 1    
    69   33  103 1    
    70   34   35 am   BACKBONE|DICT|INTERRES
    71   34  104 1    
    72   35   36 2    
    73   37   38 2    
    74   37   39 am   BACKBONE|DICT|INTERRES
    75   39   40 1    
    76   39  105 1    
    77   40   41 1    
    78   40   42 1    
    79   40  106 1    
    80   41  107 1    
    81   41  108 1    
    82   41  109 1    
    83   42   43 2    
    84   42   44 am   BACKBONE|DICT|INTERRES
    85   44   45 1    
    86   44  110 1    
    87   45   46 1    
    88   45   47 1    
    89   45  111 1    
    90   46  112 1    
    91   46  113 1    
    92   46  114 1    
    93   47   48 2    
    94   47   49 am   BACKBONE|DICT|INTERRES
    95   49   50 1    
    96   49  115 1    
    97   50   51 1    
    98   50   52 1    
    99   50  116 1    
   100   51  117 1    
   101   51  118 1    
   102   51  119 1    
   103   52   53 2    
   104   52   54 am   BACKBONE|DICT|INTERRES
   105   54   55 1    
   106   54  120 1    
   107   55   56 1    
   108   55   57 1    
   109   55  121 1    
   110   56  122 1    
   111   56  123 1    
   112   56  124 1    
   113   57   58 2    
   114   57   59 am   BACKBONE|DICT|INTERRES
   115   59   60 1    
   116   59  125 1    
   117   60   61 1    
   118   60   62 1    
   119   60  126 1    
   120   61  127 1    
   121   61  128 1    
   122   61  129 1    
   123   62   63 2    
   124   62   64 am   BACKBONE|DICT|INTERRES
   125   64   65 1    
   126   64  130 1    
   127   65   66 1    
   128   65   69 1    
   129   65  131 1    
   130   66   67 am   BACKBONE|DICT|INTERRES
   131   66   68 2    
   132   67  132 1    
   133   67  133 1    
   134   69   70 1    
   135   69  134 1    
   136   69  135 1    
   137   70   71 1    
   138   71  136 1    
   139   71  137 1    
@<TRIPOS>SUBSTRUCTURE
     1 UNK         1 GROUP             0       ****    0 ROOT    
