@<TRIPOS>MOLECULE
3R137
137   139    1
SMALL
USER_CHARGES


@<TRIPOS>ATOM
      1 CA         24.6164   -6.0366   -4.8722 C.3       0 UNK        -0.2020 
      2 C          25.0272   -5.2939   -3.6105 C.2       0 UNK         0.4855 
      3 O          24.1637   -4.8631   -2.8452 O.2       0 UNK        -0.5197 
      4 N          26.3384   -5.1264   -3.3929 N.am      1 UNK        -0.4892 
      5 CA         26.9309   -4.3740   -2.2815 C.3       1 UNK         0.0835 
      6 C6         28.4781   -4.5077   -2.2427 C.3       12 UNK        -0.0855 
      7 S7         29.3239   -4.2473   -3.8484 S.3       12 UNK        -0.2931 
      8 C8         31.0107   -3.8182   -3.3096 C.3       12 UNK         0.0378 
      9 C9         31.3135   -2.3336   -3.4716 C.ar      12 UNK        -0.0802 
     10 C10        32.2650   -1.9108   -4.4061 C.ar      12 UNK        -0.0944 
     11 C11        32.5863   -0.5549   -4.5364 C.ar      12 UNK        -0.0787 
     12 C12        31.9405    0.3822   -3.7249 C.ar      12 UNK        -0.0862 
     13 C13        30.9790   -0.0245   -2.7943 C.ar      12 UNK        -0.0733 
     14 C14        30.6717   -1.3836   -2.6704 C.ar      12 UNK        -0.0832 
     15 C15        30.2985    1.0056   -1.9030 C.3       12 UNK         0.0240 
     16 S16        29.1856    2.1082   -2.8332 S.3       12 UNK        -0.2522 
     17 C17        27.7931    1.0027   -3.2431 C.3       12 UNK        -0.0967 
     18 CA         27.4271    1.0300   -4.7484 C.3       5 UNK         0.0660 
     19 N          26.7432   -0.2038   -5.1585 N.am      5 UNK        -0.4015 
     20 C          26.3332   -0.5253   -6.3958 C.2       4 UNK         0.4946 
     21 O          26.4902    0.1960   -7.3796 O.2       4 UNK        -0.5353 
     22 CA         25.5897   -1.8585   -6.5581 C.3       4 UNK         0.0277 
     23 CB         26.5705   -3.0402   -6.6248 C.3       4 UNK        -0.1981 
     24 N          24.6391   -2.0570   -5.4645 N.am      4 UNK        -0.4209 
     25 C          23.4158   -1.5091   -5.4255 C.2       3 UNK         0.4942 
     26 O          22.9183   -0.8798   -6.3590 O.2       3 UNK        -0.5208 
     27 CA         22.6136   -1.6662   -4.1219 C.3       3 UNK         0.0250 
     28 CB         21.6615   -2.8693   -4.2127 C.3       3 UNK        -0.1990 
     29 N          23.4658   -1.7972   -2.9363 N.am      3 UNK        -0.4232 
     30 C          24.1917   -0.7929   -2.4202 C.2       2 UNK         0.4993 
     31 O          24.2002    0.3499   -2.8798 O.2       2 UNK        -0.5286 
     32 CA         25.1077   -1.1313   -1.2275 C.3       2 UNK         0.0209 
     33 CB         24.3422   -0.9830    0.0967 C.3       2 UNK        -0.1931 
     34 N          25.7112   -2.4687   -1.2988 N.am      2 UNK        -0.4546 
     35 C          26.4699   -2.9042   -2.3145 C.2       1 UNK         0.5154 
     36 O          26.7491   -2.2074   -3.2890 O.2       1 UNK        -0.5181 
     37 C          26.6385    2.3067   -5.1135 C.2       5 UNK         0.5014 
     38 O          27.2515    3.3196   -5.4518 O.2       5 UNK        -0.5248 
     39 N          25.2997    2.2208   -5.1272 N.am      6 UNK        -0.4434 
     40 CA         24.3895    3.2460   -5.6520 C.3       6 UNK         0.0363 
     41 CB         22.9408    2.7766   -5.4465 C.3       6 UNK        -0.1936 
     42 C          24.6299    3.6183   -7.1331 C.2       6 UNK         0.5081 
     43 O          24.2818    4.7294   -7.5329 O.2       6 UNK        -0.5248 
     44 N          25.2367    2.7085   -7.9075 N.am      7 UNK        -0.4718 
     45 CA         25.6907    2.9078   -9.2853 C.3       7 UNK         0.0273 
     46 CB         24.9955    1.8680  -10.1834 C.3       7 UNK        -0.1935 
     47 C          27.2290    2.8137   -9.3862 C.2       7 UNK         0.5018 
     48 O          27.7455    2.5491  -10.4720 O.2       7 UNK        -0.5186 
     49 N          27.9306    3.0176   -8.2589 N.am      8 UNK        -0.4240 
     50 CA         29.3866    2.9786   -8.0535 C.3       8 UNK         0.0235 
     51 CB         30.1131    3.9876   -8.9684 C.3       8 UNK        -0.2000 
     52 C          30.0322    1.5779   -8.1104 C.2       8 UNK         0.4941 
     53 O          31.2504    1.4921   -7.9443 O.2       8 UNK        -0.5273 
     54 N          29.2301    0.5169   -8.2970 N.am      9 UNK        -0.4262 
     55 CA         29.6138   -0.9000   -8.3626 C.3       9 UNK         0.0264 
     56 CB         29.9137   -1.4258   -6.9412 C.3       9 UNK        -0.1955 
     57 C          30.7481   -1.1645   -9.3777 C.2       9 UNK         0.5031 
     58 O          30.6583   -0.7040  -10.5182 O.2       9 UNK        -0.5390 
     59 N          31.7861   -1.8919   -8.9523 N.am      10 UNK        -0.4204 
     60 CA         33.0361   -2.1000   -9.6697 C.3       10 UNK         0.0237 
     61 CB         32.9518   -3.3674  -10.5386 C.3       10 UNK        -0.1985 
     62 C          34.1385   -2.2079   -8.6125 C.2       10 UNK         0.4970 
     63 O          34.0155   -3.0313   -7.7034 O.2       10 UNK        -0.4914 
     64 N          35.1674   -1.3680   -8.7405 N.am      11 UNK        -0.4285 
     65 CA         36.3445   -1.2923   -7.8667 C.3       11 UNK         0.1007 
     66 C          37.6033   -1.0007   -8.7243 C.2       11 UNK         0.5703 
     67 N          38.7809   -1.3738   -8.2425 N.am      11 UNK        -0.7361 
     68 O          37.5281   -0.4210   -9.8076 O.2       11 UNK        -0.4986 
     69 C69        36.1720   -0.2295   -6.7420 C.3       12 UNK        -0.0947 
     70 S70        35.2357   -0.8513   -5.3070 S.3       12 UNK        -0.2240 
     71 C71        33.6005   -0.0999   -5.5787 C.3       12 UNK         0.0194 
     72 H72        24.0328   -5.3819   -5.5189 H         1 UNK         0.0906 
     73 H73        25.4792   -6.3903   -5.4364 H         1 UNK         0.0906 
     74 H74        24.0019   -6.8991   -4.6159 H         1 UNK         0.0906 
     75 H75        27.0076   -5.4644   -4.0708 H         1 UNK         0.3140 
     76 H76        26.5466   -4.8186   -1.3609 H         1 UNK         0.1085 
     77 H77        28.7372   -5.5126   -1.9055 H         1 UNK         0.0836 
     78 H78        28.8971   -3.8359   -1.4914 H         1 UNK         0.0836 
     79 H79        31.7134   -4.4129   -3.8954 H         1 UNK         0.0731 
     80 H80        31.1675   -4.1121   -2.2709 H         1 UNK         0.0731 
     81 H81        32.7639   -2.6356   -5.0356 H         1 UNK         0.1312 
     82 H82        32.1761    1.4333   -3.8212 H         1 UNK         0.1406 
     83 H83        29.9349   -1.7055   -1.9480 H         1 UNK         0.1631 
     84 H84        31.0640    1.6125   -1.4176 H         1 UNK         0.0717 
     85 H85        29.7395    0.5234   -1.0994 H         1 UNK         0.0717 
     86 H86        28.0736   -0.0086   -2.9494 H         1 UNK         0.0934 
     87 H87        26.9351    1.2651   -2.6217 H         1 UNK         0.0934 
     88 H88        28.3547    1.0531   -5.3242 H         1 UNK         0.0739 
     89 H89        26.6377   -0.9096   -4.4293 H         1 UNK         0.3093 
     90 H90        25.0437   -1.8242   -7.5035 H         1 UNK         0.0818 
     91 H91        27.1840   -3.1172   -5.7273 H         1 UNK         0.0819 
     92 H92        26.0436   -3.9853   -6.7526 H         1 UNK         0.0819 
     93 H93        27.2482   -2.9345   -7.4720 H         1 UNK         0.0819 
     94 H94        24.9946   -2.5076   -4.6319 H         1 UNK         0.3041 
     95 H95        22.0078   -0.7652   -4.0019 H         1 UNK         0.0784 
     96 H96        20.9752   -2.7587   -5.0534 H         1 UNK         0.0793 
     97 H97        22.2011   -3.8055   -4.3564 H         1 UNK         0.0793 
     98 H98        21.0557   -2.9658   -3.3116 H         1 UNK         0.0793 
     99 H99        23.5537   -2.7243   -2.5354 H         1 UNK         0.3024 
    100 H100       25.9228   -0.4057   -1.2300 H         1 UNK         0.1171 
    101 H101       25.0019   -1.1168    0.9543 H         1 UNK         0.0786 
    102 H102       23.9008    0.0111    0.1827 H         1 UNK         0.0786 
    103 H103       23.5313   -1.7079    0.1791 H         1 UNK         0.0786 
    104 H104       25.4880   -3.1054   -0.5468 H         1 UNK         0.2977 
    105 H105       24.8725    1.3769   -4.7637 H         1 UNK         0.3127 
    106 H106       24.5453    4.1510   -5.0614 H         1 UNK         0.0770 
    107 H107       22.7293    1.8680   -6.0116 H         1 UNK         0.0814 
    108 H108       22.2327    3.5380   -5.7763 H         1 UNK         0.0814 
    109 H109       22.7329    2.5739   -4.3955 H         1 UNK         0.0814 
    110 H110       25.5074    1.8158   -7.5003 H         1 UNK         0.2983 
    111 H111       25.4154    3.9042   -9.6369 H         1 UNK         0.0947 
    112 H112       25.2549    2.0150  -11.2325 H         1 UNK         0.0806 
    113 H113       23.9107    1.9416  -10.1070 H         1 UNK         0.0806 
    114 H114       25.2821    0.8506   -9.9134 H         1 UNK         0.0806 
    115 H115       27.4046    3.2114   -7.4113 H         1 UNK         0.3000 
    116 H116       29.5352    3.3165   -7.0267 H         1 UNK         0.0850 
    117 H117       31.1638    4.0798   -8.6906 H         1 UNK         0.0810 
    118 H118       29.6722    4.9815   -8.8942 H         1 UNK         0.0810 
    119 H119       30.0842    3.6819  -10.0145 H         1 UNK         0.0810 
    120 H120       28.2342    0.6904   -8.3779 H         1 UNK         0.3040 
    121 H121       28.7407   -1.4333   -8.7398 H         1 UNK         0.0766 
    122 H122       29.0857   -1.2485   -6.2592 H         1 UNK         0.0812 
    123 H123       30.7811   -0.9255   -6.5176 H         1 UNK         0.0812 
    124 H124       30.0971   -2.5009   -6.9305 H         1 UNK         0.0812 
    125 H125       31.7924   -2.2234   -7.9964 H         1 UNK         0.3205 
    126 H126       33.2362   -1.2385  -10.3112 H         1 UNK         0.0754 
    127 H127       33.8904   -3.5414  -11.0661 H         1 UNK         0.0769 
    128 H128       32.1675   -3.2795  -11.2907 H         1 UNK         0.0769 
    129 H129       32.7424   -4.2547   -9.9394 H         1 UNK         0.0769 
    130 H130       35.2166   -0.7575   -9.5453 H         1 UNK         0.2981 
    131 H131       36.5057   -2.2728   -7.4134 H         1 UNK         0.0541 
    132 H132       39.6123   -1.1849   -8.7805 H         1 UNK         0.3459 
    133 H133       38.8559   -1.8398   -7.3514 H         1 UNK         0.3459 
    134 H134       35.7083    0.6791   -7.1301 H         1 UNK         0.0612 
    135 H135       37.1421    0.0800   -6.3484 H         1 UNK         0.0612 
    136 H136       33.7055    0.9861   -5.5691 H         1 UNK         0.0624 
    137 H137       33.2327   -0.3636   -6.5699 H         1 UNK         0.0624 
@<TRIPOS>BOND
     1    1    2 1    
     2    1   72 1    
     3    1   73 1    
     4    1   74 1    
     5    2    3 2    
     6    2    4 am   BACKBONE|DICT|INTERRES
     7    4    5 1    
     8    4   75 1    
     9    5    6 1    
    10    5   35 1    
    11    5   76 1    
    12    6    7 1    
    13    6   77 1    
    14    6   78 1    
    15    7    8 1    
    16    8    9 1    
    17    8   79 1    
    18    8   80 1    
    19    9   10 ar   
    20    9   14 ar   
    21   10   11 ar   
    22   10   81 1    
    23   11   12 ar   
    24   11   71 1    
    25   12   13 ar   
    26   12   82 1    
    27   13   14 ar   
    28   13   15 1    
    29   14   83 1    
    30   15   16 1    
    31   15   84 1    
    32   15   85 1    
    33   16   17 1    
    34   17   18 1    
    35   17   86 1    
    36   17   87 1    
    37   18   19 1    
    38   18   37 1    
    39   18   88 1    
    40   19   20 am   BACKBONE|DICT|INTERRES
    41   19   89 1    
    42   20   21 2    
    43   20   22 1    
    44   22   23 1    
    45   22   24 1    
    46   22   90 1    
    47   23   91 1    
    48   23   92 1    
    49   23   93 1    
    50   24   25 am   BACKBONE|DICT|INTERRES
    51   24   94 1    
    52   25   26 2    
    53   25   27 1    
    54   27   28 1    
    55   27   29 1    
    56   27   95 1    
    57   28   96 1    
    58   28   97 1    
    59   28   98 1    
    60   29   30 am   BACKBONE|DICT|INTERRES
    61   29   99 1    
    62   30   31 2    
    63   30   32 1    
    64   32   33 1    
    65   32   34 1    
    66   32  100 1    
    67   33  101 1    
    68   33  102 1    
    69   33  103 1    
    70   34   35 am   BACKBONE|DICT|INTERRES
    71   34  104 1    
    72   35   36 2    
    73   37   38 2    
    74   37   39 am   BACKBONE|DICT|INTERRES
    75   39   40 1    
    76   39  105 1    
    77   40   41 1    
    78   40   42 1    
    79   40  106 1    
    80   41  107 1    
    81   41  108 1    
    82   41  109 1    
    83   42   43 2    
    84   42   44 am   BACKBONE|DICT|INTERRES
    85   44   45 1    
    86   44  110 1    
    87   45   46 1    
    88   45   47 1    
    89   45  111 1    
    90   46  112 1    
    91   46  113 1    
    92   46  114 1    
    93   47   48 2    
    94   47   49 am   BACKBONE|DICT|INTERRES
    95   49   50 1    
    96   49  115 1    
    97   50   51 1    
    98   50   52 1    
    99   50  116 1    
   100   51  117 1    
   101   51  118 1    
   102   51  119 1    
   103   52   53 2    
   104   52   54 am   BACKBONE|DICT|INTERRES
   105   54   55 1    
   106   54  120 1    
   107   55   56 1    
   108   55   57 1    
   109   55  121 1    
   110   56  122 1    
   111   56  123 1    
   112   56  124 1    
   113   57   58 2    
   114   57   59 am   BACKBONE|DICT|INTERRES
   115   59   60 1    
   116   59  125 1    
   117   60   61 1    
   118   60   62 1    
   119   60  126 1    
   120   61  127 1    
   121   61  128 1    
   122   61  129 1    
   123   62   63 2    
   124   62   64 am   BACKBONE|DICT|INTERRES
   125   64   65 1    
   126   64  130 1    
   127   65   66 1    
   128   65   69 1    
   129   65  131 1    
   130   66   67 am   BACKBONE|DICT|INTERRES
   131   66   68 2    
   132   67  132 1    
   133   67  133 1    
   134   69   70 1    
   135   69  134 1    
   136   69  135 1    
   137   70   71 1    
   138   71  136 1    
   139   71  137 1    
@<TRIPOS>SUBSTRUCTURE
     1 UNK         1 GROUP             0       ****    0 ROOT    
