@<TRIPOS>MOLECULE
3R137
137   139    1
SMALL
USER_CHARGES


@<TRIPOS>ATOM
      1 CA         24.7065   -0.6652   -6.8804 C.3       0 UNK        -0.2020 
      2 C          24.4033   -1.8625   -5.9941 C.2       0 UNK         0.4855 
      3 O          23.2344   -2.1472   -5.7309 O.2       0 UNK        -0.5197 
      4 N          25.4569   -2.5500   -5.5364 N.am      1 UNK        -0.4892 
      5 CA         25.4693   -3.7075   -4.6294 C.3       1 UNK         0.0835 
      6 C6         26.9203   -4.1122   -4.2681 C.3       12 UNK        -0.0855 
      7 S7         27.8681   -4.6975   -5.7086 S.3       12 UNK        -0.2931 
      8 C8         29.2205   -5.5884   -4.8800 C.3       12 UNK         0.0378 
      9 C9         30.2126   -4.6395   -4.2214 C.ar      12 UNK        -0.0802 
     10 C10        31.2278   -4.0580   -4.9873 C.ar      12 UNK        -0.0944 
     11 C11        32.1841   -3.2340   -4.3887 C.ar      12 UNK        -0.0787 
     12 C12        32.1139   -2.9859   -3.0157 C.ar      12 UNK        -0.0862 
     13 C13        31.0887   -3.5372   -2.2410 C.ar      12 UNK        -0.0733 
     14 C14        30.1421   -4.3694   -2.8489 C.ar      12 UNK        -0.0832 
     15 C15        31.0311   -3.2516   -0.7438 C.3       12 UNK         0.0240 
     16 S16        29.7534   -2.0281   -0.2928 S.3       12 UNK        -0.2522 
     17 C17        30.1748   -0.6055   -1.3560 C.3       12 UNK        -0.0967 
     18 CA         29.1234   -0.4550   -2.4839 C.3       5 UNK         0.0660 
     19 N          27.8976    0.1907   -1.9993 N.am      5 UNK        -0.4015 
     20 C          26.7208    0.1794   -2.6370 C.2       4 UNK         0.4946 
     21 O          26.5185   -0.4207   -3.6942 O.2       4 UNK        -0.5353 
     22 CA         25.5870    1.0084   -2.0245 C.3       4 UNK         0.0277 
     23 CB         25.7659    2.4957   -2.3961 C.3       4 UNK        -0.1981 
     24 N          24.3322    0.4822   -2.5563 N.am      4 UNK        -0.4209 
     25 C          23.0884    0.8513   -2.2312 C.2       3 UNK         0.4942 
     26 O          22.8182    1.7109   -1.3915 O.2       3 UNK        -0.5208 
     27 CA         21.9468    0.1295   -2.9674 C.3       3 UNK         0.0250 
     28 CB         21.7449    0.7221   -4.3716 C.3       3 UNK        -0.1990 
     29 N          22.1725   -1.3149   -3.0672 N.am      3 UNK        -0.4232 
     30 C          22.0637   -2.1627   -2.0323 C.2       2 UNK         0.4993 
     31 O          21.7043   -1.8214   -0.9047 O.2       2 UNK        -0.5286 
     32 CA         22.4055   -3.6426   -2.2847 C.3       2 UNK         0.0209 
     33 CB         21.1286   -4.4491   -2.5727 C.3       2 UNK        -0.1931 
     34 N          23.3591   -3.8437   -3.3783 N.am      2 UNK        -0.4546 
     35 C          24.6462   -3.4735   -3.3419 C.2       1 UNK         0.5154 
     36 O          25.1752   -2.9696   -2.3493 O.2       1 UNK        -0.5181 
     37 C          29.6713    0.2829   -3.7227 C.2       5 UNK         0.5014 
     38 O          30.5367    1.1523   -3.6045 O.2       5 UNK        -0.5248 
     39 N          29.1117   -0.0764   -4.8780 N.am      6 UNK        -0.4434 
     40 CA         29.4007    0.3922   -6.2224 C.3       6 UNK         0.0363 
     41 CB         28.8062    1.7974   -6.4335 C.3       6 UNK        -0.1936 
     42 C          28.7670   -0.6251   -7.1798 C.2       6 UNK         0.5081 
     43 O          27.8720   -1.3729   -6.7747 O.2       6 UNK        -0.5248 
     44 N          29.2173   -0.6189   -8.4342 N.am      7 UNK        -0.4718 
     45 CA         28.7266   -1.4754   -9.5103 C.3       7 UNK         0.0273 
     46 CB         29.6922   -2.6605   -9.6995 C.3       7 UNK        -0.1935 
     47 C          28.5910   -0.5950  -10.7562 C.2       7 UNK         0.5018 
     48 O          29.3843   -0.7166  -11.6921 O.2       7 UNK        -0.5186 
     49 N          27.6451    0.3544  -10.6883 N.am      8 UNK        -0.4240 
     50 CA         27.4289    1.5026  -11.5837 C.3       8 UNK         0.0235 
     51 CB         27.1946    1.0799  -13.0483 C.3       8 UNK        -0.2000 
     52 C          28.5439    2.5560  -11.4556 C.2       8 UNK         0.4941 
     53 O          28.2513    3.7135  -11.1535 O.2       8 UNK        -0.5273 
     54 N          29.7976    2.1247  -11.6287 N.am      9 UNK        -0.4262 
     55 CA         30.9961    2.8495  -11.2160 C.3       9 UNK         0.0264 
     56 CB         32.1758    2.3956  -12.0906 C.3       9 UNK        -0.1955 
     57 C          31.2843    2.5468   -9.7378 C.2       9 UNK         0.5031 
     58 O          30.9262    1.4693   -9.2502 O.2       9 UNK        -0.5390 
     59 N          31.9730    3.4679   -9.0540 N.am      10 UNK        -0.4204 
     60 CA         32.3708    3.3521   -7.6455 C.3       10 UNK         0.0237 
     61 CB         32.6516    4.7609   -7.0891 C.3       10 UNK        -0.1985 
     62 C          33.5543    2.3820   -7.4402 C.2       10 UNK         0.4970 
     63 O          34.5955    2.7810   -6.9159 O.2       10 UNK        -0.4914 
     64 N          33.3696    1.1316   -7.8807 N.am      11 UNK        -0.4285 
     65 CA         34.3161    0.0052   -7.7971 C.3       11 UNK         0.1007 
     66 C          35.6022    0.1629   -8.6661 C.2       11 UNK         0.5703 
     67 N          35.6522    1.0910   -9.6146 N.am      11 UNK        -0.7361 
     68 O          36.5596   -0.5912   -8.5075 O.2       11 UNK        -0.4986 
     69 C69        34.6258   -0.4160   -6.3315 C.3       12 UNK        -0.0947 
     70 S70        33.1189   -0.8357   -5.3915 S.3       12 UNK        -0.2240 
     71 C71        33.3124   -2.6333   -5.2122 C.3       12 UNK         0.0194 
     72 H72        25.2318   -0.9822   -7.7809 H         1 UNK         0.0906 
     73 H73        23.7892   -0.1593   -7.1807 H         1 UNK         0.0906 
     74 H74        25.3339    0.0504   -6.3483 H         1 UNK         0.0906 
     75 H75        26.3806   -2.2263   -5.8161 H         1 UNK         0.3140 
     76 H76        25.0115   -4.5412   -5.1653 H         1 UNK         0.1085 
     77 H77        26.9168   -4.9073   -3.5196 H         1 UNK         0.0836 
     78 H78        27.4528   -3.2705   -3.8204 H         1 UNK         0.0836 
     79 H79        29.7400   -6.1985   -5.6206 H         1 UNK         0.0731 
     80 H80        28.8114   -6.2886   -4.1500 H         1 UNK         0.0731 
     81 H81        31.2798   -4.2618   -6.0483 H         1 UNK         0.1312 
     82 H82        32.8600   -2.3537   -2.5535 H         1 UNK         0.1406 
     83 H83        29.3568   -4.8114   -2.2506 H         1 UNK         0.1631 
     84 H84        31.9988   -2.8975   -0.3849 H         1 UNK         0.0717 
     85 H85        30.8326   -4.1798   -0.2060 H         1 UNK         0.0717 
     86 H86        30.2295    0.2984   -0.7470 H         1 UNK         0.0934 
     87 H87        31.1795   -0.7423   -1.7570 H         1 UNK         0.0934 
     88 H88        28.8586   -1.4597   -2.8232 H         1 UNK         0.0739 
     89 H89        27.9859    0.7245   -1.1475 H         1 UNK         0.3093 
     90 H90        25.5925    0.8827   -0.9402 H         1 UNK         0.0818 
     91 H91        26.7309    2.8741   -2.0568 H         1 UNK         0.0819 
     92 H92        25.7190    2.6462   -3.4756 H         1 UNK         0.0819 
     93 H93        25.0024    3.1237   -1.9379 H         1 UNK         0.0819 
     94 H94        24.4769   -0.2542   -3.2379 H         1 UNK         0.3041 
     95 H95        21.0281    0.2926   -2.3994 H         1 UNK         0.0784 
     96 H96        21.5250    1.7891   -4.3152 H         1 UNK         0.0793 
     97 H97        22.6329    0.6058   -4.9930 H         1 UNK         0.0793 
     98 H98        20.9109    0.2458   -4.8873 H         1 UNK         0.0793 
     99 H99        22.4733   -1.6784   -3.9681 H         1 UNK         0.3024 
    100 H100       22.8575   -4.0290   -1.3681 H         1 UNK         0.1171 
    101 H101       20.6401   -4.1179   -3.4901 H         1 UNK         0.0786 
    102 H102       21.3443   -5.5132   -2.6709 H         1 UNK         0.0786 
    103 H103       20.4071   -4.3402   -1.7616 H         1 UNK         0.0786 
    104 H104       22.9837   -4.1907   -4.2505 H         1 UNK         0.2977 
    105 H105       28.3508   -0.7509   -4.8567 H         1 UNK         0.3127 
    106 H106       30.4812    0.4093   -6.3769 H         1 UNK         0.0770 
    107 H107       28.9747    2.1487   -7.4519 H         1 UNK         0.0814 
    108 H108       29.2594    2.5263   -5.7618 H         1 UNK         0.0814 
    109 H109       27.7295    1.8055   -6.2585 H         1 UNK         0.0814 
    110 H110       29.9007    0.0875   -8.7117 H         1 UNK         0.2983 
    111 H111       27.7350   -1.8688   -9.2743 H         1 UNK         0.0947 
    112 H112       29.3696   -3.2993  -10.5224 H         1 UNK         0.0806 
    113 H113       29.7335   -3.2797   -8.8030 H         1 UNK         0.0806 
    114 H114       30.7059   -2.3242   -9.9210 H         1 UNK         0.0806 
    115 H115       27.0896    0.3751   -9.8442 H         1 UNK         0.3000 
    116 H116       26.5094    1.9763  -11.2354 H         1 UNK         0.0850 
    117 H117       28.0820    0.6380  -13.5014 H         1 UNK         0.0810 
    118 H118       26.9196    1.9414  -13.6580 H         1 UNK         0.0810 
    119 H119       26.3834    0.3560  -13.1260 H         1 UNK         0.0810 
    120 H120       29.9120    1.1284  -11.7972 H         1 UNK         0.3040 
    121 H121       30.8436    3.9233  -11.3449 H         1 UNK         0.0766 
    122 H122       31.9801    2.5837  -13.1464 H         1 UNK         0.0812 
    123 H123       32.3788    1.3298  -11.9736 H         1 UNK         0.0812 
    124 H124       33.0887    2.9329  -11.8310 H         1 UNK         0.0812 
    125 H125       32.2670    4.3071   -9.5338 H         1 UNK         0.3205 
    126 H126       31.5300    2.9418   -7.0822 H         1 UNK         0.0754 
    127 H127       32.9060    4.7190   -6.0290 H         1 UNK         0.0769 
    128 H128       31.7778    5.4060   -7.1832 H         1 UNK         0.0769 
    129 H129       33.4829    5.2423   -7.6059 H         1 UNK         0.0769 
    130 H130       32.4864    0.9363   -8.3437 H         1 UNK         0.2981 
    131 H131       33.7914   -0.8316   -8.2593 H         1 UNK         0.0541 
    132 H132       34.8766    1.7157   -9.7584 H         1 UNK         0.3459 
    133 H133       36.4834    1.1753  -10.1781 H         1 UNK         0.3459 
    134 H134       35.1473    0.3833   -5.8034 H         1 UNK         0.0612 
    135 H135       35.2998   -1.2739   -6.3116 H         1 UNK         0.0612 
    136 H136       34.2652   -2.8492   -4.7265 H         1 UNK         0.0624 
    137 H137       33.3552   -3.0883   -6.2031 H         1 UNK         0.0624 
@<TRIPOS>BOND
     1    1    2 1    
     2    1   72 1    
     3    1   73 1    
     4    1   74 1    
     5    2    3 2    
     6    2    4 am   BACKBONE|DICT|INTERRES
     7    4    5 1    
     8    4   75 1    
     9    5    6 1    
    10    5   35 1    
    11    5   76 1    
    12    6    7 1    
    13    6   77 1    
    14    6   78 1    
    15    7    8 1    
    16    8    9 1    
    17    8   79 1    
    18    8   80 1    
    19    9   10 ar   
    20    9   14 ar   
    21   10   11 ar   
    22   10   81 1    
    23   11   12 ar   
    24   11   71 1    
    25   12   13 ar   
    26   12   82 1    
    27   13   14 ar   
    28   13   15 1    
    29   14   83 1    
    30   15   16 1    
    31   15   84 1    
    32   15   85 1    
    33   16   17 1    
    34   17   18 1    
    35   17   86 1    
    36   17   87 1    
    37   18   19 1    
    38   18   37 1    
    39   18   88 1    
    40   19   20 am   BACKBONE|DICT|INTERRES
    41   19   89 1    
    42   20   21 2    
    43   20   22 1    
    44   22   23 1    
    45   22   24 1    
    46   22   90 1    
    47   23   91 1    
    48   23   92 1    
    49   23   93 1    
    50   24   25 am   BACKBONE|DICT|INTERRES
    51   24   94 1    
    52   25   26 2    
    53   25   27 1    
    54   27   28 1    
    55   27   29 1    
    56   27   95 1    
    57   28   96 1    
    58   28   97 1    
    59   28   98 1    
    60   29   30 am   BACKBONE|DICT|INTERRES
    61   29   99 1    
    62   30   31 2    
    63   30   32 1    
    64   32   33 1    
    65   32   34 1    
    66   32  100 1    
    67   33  101 1    
    68   33  102 1    
    69   33  103 1    
    70   34   35 am   BACKBONE|DICT|INTERRES
    71   34  104 1    
    72   35   36 2    
    73   37   38 2    
    74   37   39 am   BACKBONE|DICT|INTERRES
    75   39   40 1    
    76   39  105 1    
    77   40   41 1    
    78   40   42 1    
    79   40  106 1    
    80   41  107 1    
    81   41  108 1    
    82   41  109 1    
    83   42   43 2    
    84   42   44 am   BACKBONE|DICT|INTERRES
    85   44   45 1    
    86   44  110 1    
    87   45   46 1    
    88   45   47 1    
    89   45  111 1    
    90   46  112 1    
    91   46  113 1    
    92   46  114 1    
    93   47   48 2    
    94   47   49 am   BACKBONE|DICT|INTERRES
    95   49   50 1    
    96   49  115 1    
    97   50   51 1    
    98   50   52 1    
    99   50  116 1    
   100   51  117 1    
   101   51  118 1    
   102   51  119 1    
   103   52   53 2    
   104   52   54 am   BACKBONE|DICT|INTERRES
   105   54   55 1    
   106   54  120 1    
   107   55   56 1    
   108   55   57 1    
   109   55  121 1    
   110   56  122 1    
   111   56  123 1    
   112   56  124 1    
   113   57   58 2    
   114   57   59 am   BACKBONE|DICT|INTERRES
   115   59   60 1    
   116   59  125 1    
   117   60   61 1    
   118   60   62 1    
   119   60  126 1    
   120   61  127 1    
   121   61  128 1    
   122   61  129 1    
   123   62   63 2    
   124   62   64 am   BACKBONE|DICT|INTERRES
   125   64   65 1    
   126   64  130 1    
   127   65   66 1    
   128   65   69 1    
   129   65  131 1    
   130   66   67 am   BACKBONE|DICT|INTERRES
   131   66   68 2    
   132   67  132 1    
   133   67  133 1    
   134   69   70 1    
   135   69  134 1    
   136   69  135 1    
   137   70   71 1    
   138   71  136 1    
   139   71  137 1    
@<TRIPOS>SUBSTRUCTURE
     1 UNK         1 GROUP             0       ****    0 ROOT    
