@<TRIPOS>MOLECULE
3R137
137   139    1
SMALL
USER_CHARGES


@<TRIPOS>ATOM
      1 CA         26.5517   -5.5120   -3.4080 C.3       0 UNK        -0.2020 
      2 C          26.4578   -4.0802   -2.9083 C.2       0 UNK         0.4855 
      3 O          26.1458   -3.1680   -3.6784 O.2       0 UNK        -0.5197 
      4 N          26.6783   -3.8846   -1.6004 N.am      1 UNK        -0.4892 
      5 CA         26.5794   -2.6234   -0.8418 C.3       1 UNK         0.0835 
      6 C6         27.5056   -1.4975   -1.3969 C.3       12 UNK        -0.0855 
      7 S7         28.9707   -1.1889   -0.3573 S.3       12 UNK        -0.2931 
      8 C8         30.0930   -2.5479   -0.8274 C.3       12 UNK         0.0378 
      9 C9         30.5409   -2.4937   -2.2837 C.ar      12 UNK        -0.0802 
     10 C10        31.3398   -1.4423   -2.7470 C.ar      12 UNK        -0.0944 
     11 C11        31.7635   -1.4083   -4.0802 C.ar      12 UNK        -0.0787 
     12 C12        31.4034   -2.4449   -4.9455 C.ar      12 UNK        -0.0862 
     13 C13        30.6318   -3.5142   -4.4871 C.ar      12 UNK        -0.0733 
     14 C14        30.1936   -3.5268   -3.1597 C.ar      12 UNK        -0.0832 
     15 C15        30.3136   -4.6841   -5.4035 C.3       12 UNK         0.0240 
     16 S16        28.6149   -4.6046   -6.0399 S.3       12 UNK        -0.2522 
     17 C17        28.7900   -3.6388   -7.5780 C.3       12 UNK        -0.0967 
     18 CA         27.9381   -2.3444   -7.6358 C.3       5 UNK         0.0660 
     19 N          26.6066   -2.5011   -7.0348 N.am      5 UNK        -0.4015 
     20 C          25.5802   -1.6643   -7.2324 C.2       4 UNK         0.4946 
     21 O          25.6561   -0.6636   -7.9447 O.2       4 UNK        -0.5353 
     22 CA         24.2862   -1.9411   -6.4587 C.3       4 UNK         0.0277 
     23 CB         23.9342   -3.4402   -6.3892 C.3       4 UNK        -0.1981 
     24 N          24.4448   -1.4006   -5.1097 N.am      4 UNK        -0.4209 
     25 C          23.7286   -0.3941   -4.5937 C.2       3 UNK         0.4942 
     26 O          22.7663    0.1341   -5.1536 O.2       3 UNK        -0.5208 
     27 CA         24.1931    0.1489   -3.2348 C.3       3 UNK         0.0250 
     28 CB         24.7925    1.5548   -3.4059 C.3       3 UNK        -0.1990 
     29 N          23.0900    0.2516   -2.2769 N.am      3 UNK        -0.4232 
     30 C          22.3960   -0.6843   -1.6056 C.2       2 UNK         0.4993 
     31 O          21.3996   -0.3588   -0.9620 O.2       2 UNK        -0.5286 
     32 CA         22.7947   -2.1785   -1.5665 C.3       2 UNK         0.0209 
     33 CB         22.0803   -2.9871   -2.6631 C.3       2 UNK        -0.1931 
     34 N          24.2238   -2.4849   -1.5747 N.am      2 UNK        -0.4546 
     35 C          25.1194   -2.1442   -0.6380 C.2       1 UNK         0.5154 
     36 O          24.8304   -1.5028    0.3726 O.2       1 UNK        -0.5181 
     37 C          28.6929   -1.0941   -7.1338 C.2       5 UNK         0.5014 
     38 O          29.5053   -0.5438   -7.8807 O.2       5 UNK        -0.5248 
     39 N          28.3711   -0.6198   -5.9216 N.am      6 UNK        -0.4434 
     40 CA         28.8204    0.6765   -5.4079 C.3       6 UNK         0.0363 
     41 CB         28.5673    0.7593   -3.8967 C.3       6 UNK        -0.1936 
     42 C          28.1683    1.8701   -6.1291 C.2       6 UNK         0.5081 
     43 O          28.8332    2.8878   -6.3147 O.2       6 UNK        -0.5248 
     44 N          26.9013    1.7279   -6.5496 N.am      7 UNK        -0.4718 
     45 CA         26.1703    2.7462   -7.3145 C.3       7 UNK         0.0273 
     46 CB         24.6544    2.5183   -7.1963 C.3       7 UNK        -0.1935 
     47 C          26.6103    2.7732   -8.7862 C.2       7 UNK         0.5018 
     48 O          26.6866    3.8503   -9.3772 O.2       7 UNK        -0.5186 
     49 N          26.9499    1.5950   -9.3298 N.am      8 UNK        -0.4240 
     50 CA         27.6100    1.4276  -10.6292 C.3       8 UNK         0.0235 
     51 CB         27.5269   -0.0493  -11.0473 C.3       8 UNK        -0.2000 
     52 C          29.0789    1.9021  -10.6374 C.2       8 UNK         0.4941 
     53 O          29.6550    2.0312  -11.7181 O.2       8 UNK        -0.5273 
     54 N          29.6498    2.1435   -9.4465 N.am      9 UNK        -0.4262 
     55 CA         31.0161    2.5926   -9.1688 C.3       9 UNK         0.0264 
     56 CB         31.2605    4.0088   -9.7319 C.3       9 UNK        -0.1955 
     57 C          32.0808    1.5723   -9.6078 C.2       9 UNK         0.5031 
     58 O          33.1211    1.9603  -10.1444 O.2       9 UNK        -0.5390 
     59 N          31.8272    0.2822   -9.3373 N.am      10 UNK        -0.4204 
     60 CA         32.7269   -0.8337   -9.6620 C.3       10 UNK         0.0237 
     61 CB         32.0202   -2.1613   -9.3512 C.3       10 UNK        -0.1985 
     62 C          34.0935   -0.7718   -8.9508 C.2       10 UNK         0.4970 
     63 O          35.0585   -1.3505   -9.4513 O.2       10 UNK        -0.4914 
     64 N          34.1536   -0.0593   -7.8189 N.am      11 UNK        -0.4285 
     65 CA         35.3864    0.2746   -7.0908 C.3       11 UNK         0.1007 
     66 C          36.2515    1.3766   -7.7739 C.2       11 UNK         0.5703 
     67 N          35.7842    2.0602   -8.8136 N.am      11 UNK        -0.7361 
     68 O          37.3825    1.6103   -7.3542 O.2       11 UNK        -0.4986 
     69 C69        35.0911    0.6346   -5.6096 C.3       12 UNK        -0.0947 
     70 S70        34.3676   -0.7603   -4.6852 S.3       12 UNK        -0.2240 
     71 C71        32.6209   -0.2647   -4.5951 C.3       12 UNK         0.0194 
     72 H72        26.0209   -6.1925   -2.7428 H         1 UNK         0.0906 
     73 H73        26.1117   -5.6024   -4.4005 H         1 UNK         0.0906 
     74 H74        27.5925   -5.8278   -3.4667 H         1 UNK         0.0906 
     75 H75        26.8909   -4.6925   -1.0303 H         1 UNK         0.3140 
     76 H76        26.9155   -2.8790    0.1647 H         1 UNK         0.1085 
     77 H77        27.8404   -1.7063   -2.4121 H         1 UNK         0.0836 
     78 H78        26.9812   -0.5427   -1.4643 H         1 UNK         0.0836 
     79 H79        30.9762   -2.5057   -0.1886 H         1 UNK         0.0731 
     80 H80        29.6054   -3.4984   -0.6053 H         1 UNK         0.0731 
     81 H81        31.6231   -0.6481   -2.0699 H         1 UNK         0.1312 
     82 H82        31.7484   -2.4288   -5.9690 H         1 UNK         0.1406 
     83 H83        29.5977   -4.3560   -2.8049 H         1 UNK         0.1631 
     84 H84        30.4273   -5.6142   -4.8446 H         1 UNK         0.0717 
     85 H85        31.0254   -4.7447   -6.2281 H         1 UNK         0.0717 
     86 H86        29.8413   -3.4327   -7.7795 H         1 UNK         0.0934 
     87 H87        28.4756   -4.2979   -8.3887 H         1 UNK         0.0934 
     88 H88        27.7624   -2.1528   -8.6955 H         1 UNK         0.0739 
     89 H89        26.4997   -3.2847   -6.4045 H         1 UNK         0.3093 
     90 H90        23.4811   -1.4304   -6.9916 H         1 UNK         0.0818 
     91 H91        22.9427   -3.5857   -5.9608 H         1 UNK         0.0819 
     92 H92        23.9199   -3.8860   -7.3848 H         1 UNK         0.0819 
     93 H93        24.6379   -4.0094   -5.7822 H         1 UNK         0.0819 
     94 H94        25.1838   -1.8284   -4.5550 H         1 UNK         0.3041 
     95 H95        24.9909   -0.4794   -2.8516 H         1 UNK         0.0784 
     96 H96        25.5546    1.5721   -4.1822 H         1 UNK         0.0793 
     97 H97        24.0348    2.2865   -3.6897 H         1 UNK         0.0793 
     98 H98        25.2613    1.9005   -2.4842 H         1 UNK         0.0793 
     99 H99        22.7154    1.1857   -2.2080 H         1 UNK         0.3024 
    100 H100       22.4196   -2.5510   -0.6102 H         1 UNK         0.1171 
    101 H101       21.0103   -2.7743   -2.6721 H         1 UNK         0.0786 
    102 H102       22.1918   -4.0588   -2.4974 H         1 UNK         0.0786 
    103 H103       22.4626   -2.7656   -3.6572 H         1 UNK         0.0786 
    104 H104       24.5814   -2.9875   -2.3778 H         1 UNK         0.2977 
    105 H105       27.7428   -1.1591   -5.3447 H         1 UNK         0.3127 
    106 H106       29.8973    0.7512   -5.5707 H         1 UNK         0.0770 
    107 H107       27.5266    0.5671   -3.6453 H         1 UNK         0.0814 
    108 H108       28.8248    1.7447   -3.5060 H         1 UNK         0.0814 
    109 H109       29.1758    0.0367   -3.3588 H         1 UNK         0.0814 
    110 H110       26.4435    0.8334   -6.4427 H         1 UNK         0.2983 
    111 H111       26.3947    3.7266   -6.8878 H         1 UNK         0.0947 
    112 H112       24.1044    3.2783   -7.7527 H         1 UNK         0.0806 
    113 H113       24.3215    2.5778   -6.1611 H         1 UNK         0.0806 
    114 H114       24.3500    1.5485   -7.5894 H         1 UNK         0.0806 
    115 H115       26.7541    0.7519   -8.7976 H         1 UNK         0.3000 
    116 H116       27.0662    2.0257  -11.3633 H         1 UNK         0.0850 
    117 H117       27.8724   -0.1810  -12.0735 H         1 UNK         0.0810 
    118 H118       26.5047   -0.4253  -10.9974 H         1 UNK         0.0810 
    119 H119       28.1522   -0.6790  -10.4153 H         1 UNK         0.0810 
    120 H120       29.0834    1.9735   -8.6269 H         1 UNK         0.3040 
    121 H121       31.0943    2.6577   -8.0825 H         1 UNK         0.0766 
    122 H122       32.2273    4.3962   -9.4082 H         1 UNK         0.0812 
    123 H123       30.4996    4.7087   -9.3865 H         1 UNK         0.0812 
    124 H124       31.2566    4.0186  -10.8223 H         1 UNK         0.0812 
    125 H125       30.9502    0.0410   -8.8752 H         1 UNK         0.3205 
    126 H126       32.9202   -0.7931  -10.7360 H         1 UNK         0.0754 
    127 H127       32.6355   -3.0122   -9.6471 H         1 UNK         0.0769 
    128 H128       31.0730   -2.2434   -9.8850 H         1 UNK         0.0769 
    129 H129       31.8169   -2.2599   -8.2859 H         1 UNK         0.0769 
    130 H130       33.3112    0.3852   -7.4920 H         1 UNK         0.2981 
    131 H131       36.0122   -0.6200   -7.0873 H         1 UNK         0.0541 
    132 H132       34.8592    1.8887   -9.1941 H         1 UNK         0.3459 
    133 H133       36.3702    2.7622   -9.2359 H         1 UNK         0.3459 
    134 H134       34.4363    1.5054   -5.5444 H         1 UNK         0.0612 
    135 H135       36.0118    0.9100   -5.0918 H         1 UNK         0.0612 
    136 H136       32.5238    0.6118   -3.9526 H         1 UNK         0.0624 
    137 H137       32.2712    0.0320   -5.5845 H         1 UNK         0.0624 
@<TRIPOS>BOND
     1    1    2 1    
     2    1   72 1    
     3    1   73 1    
     4    1   74 1    
     5    2    3 2    
     6    2    4 am   BACKBONE|DICT|INTERRES
     7    4    5 1    
     8    4   75 1    
     9    5    6 1    
    10    5   35 1    
    11    5   76 1    
    12    6    7 1    
    13    6   77 1    
    14    6   78 1    
    15    7    8 1    
    16    8    9 1    
    17    8   79 1    
    18    8   80 1    
    19    9   10 ar   
    20    9   14 ar   
    21   10   11 ar   
    22   10   81 1    
    23   11   12 ar   
    24   11   71 1    
    25   12   13 ar   
    26   12   82 1    
    27   13   14 ar   
    28   13   15 1    
    29   14   83 1    
    30   15   16 1    
    31   15   84 1    
    32   15   85 1    
    33   16   17 1    
    34   17   18 1    
    35   17   86 1    
    36   17   87 1    
    37   18   19 1    
    38   18   37 1    
    39   18   88 1    
    40   19   20 am   BACKBONE|DICT|INTERRES
    41   19   89 1    
    42   20   21 2    
    43   20   22 1    
    44   22   23 1    
    45   22   24 1    
    46   22   90 1    
    47   23   91 1    
    48   23   92 1    
    49   23   93 1    
    50   24   25 am   BACKBONE|DICT|INTERRES
    51   24   94 1    
    52   25   26 2    
    53   25   27 1    
    54   27   28 1    
    55   27   29 1    
    56   27   95 1    
    57   28   96 1    
    58   28   97 1    
    59   28   98 1    
    60   29   30 am   BACKBONE|DICT|INTERRES
    61   29   99 1    
    62   30   31 2    
    63   30   32 1    
    64   32   33 1    
    65   32   34 1    
    66   32  100 1    
    67   33  101 1    
    68   33  102 1    
    69   33  103 1    
    70   34   35 am   BACKBONE|DICT|INTERRES
    71   34  104 1    
    72   35   36 2    
    73   37   38 2    
    74   37   39 am   BACKBONE|DICT|INTERRES
    75   39   40 1    
    76   39  105 1    
    77   40   41 1    
    78   40   42 1    
    79   40  106 1    
    80   41  107 1    
    81   41  108 1    
    82   41  109 1    
    83   42   43 2    
    84   42   44 am   BACKBONE|DICT|INTERRES
    85   44   45 1    
    86   44  110 1    
    87   45   46 1    
    88   45   47 1    
    89   45  111 1    
    90   46  112 1    
    91   46  113 1    
    92   46  114 1    
    93   47   48 2    
    94   47   49 am   BACKBONE|DICT|INTERRES
    95   49   50 1    
    96   49  115 1    
    97   50   51 1    
    98   50   52 1    
    99   50  116 1    
   100   51  117 1    
   101   51  118 1    
   102   51  119 1    
   103   52   53 2    
   104   52   54 am   BACKBONE|DICT|INTERRES
   105   54   55 1    
   106   54  120 1    
   107   55   56 1    
   108   55   57 1    
   109   55  121 1    
   110   56  122 1    
   111   56  123 1    
   112   56  124 1    
   113   57   58 2    
   114   57   59 am   BACKBONE|DICT|INTERRES
   115   59   60 1    
   116   59  125 1    
   117   60   61 1    
   118   60   62 1    
   119   60  126 1    
   120   61  127 1    
   121   61  128 1    
   122   61  129 1    
   123   62   63 2    
   124   62   64 am   BACKBONE|DICT|INTERRES
   125   64   65 1    
   126   64  130 1    
   127   65   66 1    
   128   65   69 1    
   129   65  131 1    
   130   66   67 am   BACKBONE|DICT|INTERRES
   131   66   68 2    
   132   67  132 1    
   133   67  133 1    
   134   69   70 1    
   135   69  134 1    
   136   69  135 1    
   137   70   71 1    
   138   71  136 1    
   139   71  137 1    
@<TRIPOS>SUBSTRUCTURE
     1 UNK         1 GROUP             0       ****    0 ROOT    
