@<TRIPOS>MOLECULE
3R137
137   139    1
SMALL
USER_CHARGES


@<TRIPOS>ATOM
      1 CA         27.8732   -6.2853   -0.8776 C.3       0 UNK        -0.2020 
      2 C          28.0449   -5.1490    0.1202 C.2       0 UNK         0.4855 
      3 O          28.7922   -5.2921    1.0880 O.2       0 UNK        -0.5197 
      4 N          27.3611   -4.0238   -0.1095 N.am      1 UNK        -0.4892 
      5 CA         27.3804   -2.8391    0.7548 C.3       1 UNK         0.0835 
      6 C6         28.6880   -2.0015    0.6708 C.3       12 UNK        -0.0855 
      7 S7         29.1638   -1.5139   -1.0263 S.3       12 UNK        -0.2931 
      8 C8         30.5613   -2.6371   -1.3446 C.3       12 UNK         0.0378 
      9 C9         30.6532   -3.0176   -2.8147 C.ar      12 UNK        -0.0802 
     10 C10        31.6870   -2.5302   -3.6209 C.ar      12 UNK        -0.0944 
     11 C11        31.7941   -2.9361   -4.9559 C.ar      12 UNK        -0.0787 
     12 C12        30.8481   -3.8200   -5.4879 C.ar      12 UNK        -0.0862 
     13 C13        29.8128   -4.3142   -4.6893 C.ar      12 UNK        -0.0733 
     14 C14        29.7200   -3.9047   -3.3571 C.ar      12 UNK        -0.0832 
     15 C15        28.8256   -5.3370   -5.2312 C.3       12 UNK         0.0240 
     16 S16        27.2187   -4.5889   -5.6387 S.3       12 UNK        -0.2522 
     17 C17        27.4062   -4.2084   -7.4190 C.3       12 UNK        -0.0967 
     18 CA         26.9121   -2.7953   -7.8203 C.3       5 UNK         0.0660 
     19 N          25.5894   -2.4877   -7.2636 N.am      5 UNK        -0.4015 
     20 C          24.8895   -1.3672   -7.4817 C.2       4 UNK         0.4946 
     21 O          25.2687   -0.4613   -8.2247 O.2       4 UNK        -0.5353 
     22 CA         23.6025   -1.1784   -6.6724 C.3       4 UNK         0.0277 
     23 CB         22.9466   -2.4991   -6.2201 C.3       4 UNK        -0.1981 
     24 N          23.9682   -0.3957   -5.4987 N.am      4 UNK        -0.4209 
     25 C          23.6316    0.8726   -5.2537 C.2       3 UNK         0.4942 
     26 O          22.8324    1.5148   -5.9372 O.2       3 UNK        -0.5208 
     27 CA         24.3166    1.5271   -4.0340 C.3       3 UNK         0.0250 
     28 CB         23.7995    2.9519   -3.7576 C.3       3 UNK        -0.1990 
     29 N          24.1956    0.7344   -2.8043 N.am      3 UNK        -0.4232 
     30 C          24.8609   -0.3937   -2.5234 C.2       2 UNK         0.4993 
     31 O          25.6409   -0.9469   -3.3053 O.2       2 UNK        -0.5286 
     32 CA         24.5658   -1.0393   -1.1678 C.3       2 UNK         0.0209 
     33 CB         23.3427   -1.9693   -1.2608 C.3       2 UNK        -0.1931 
     34 N          25.7363   -1.8050   -0.7498 N.am      2 UNK        -0.4546 
     35 C          26.1156   -1.9957    0.5205 C.2       1 UNK         0.5154 
     36 O          25.4881   -1.5659    1.4900 O.2       1 UNK        -0.5181 
     37 C          27.9649   -1.7087   -7.5196 C.2       5 UNK         0.5014 
     38 O          28.7319   -1.3548   -8.4148 O.2       5 UNK        -0.5248 
     39 N          27.9322   -1.1536   -6.2997 N.am      6 UNK        -0.4434 
     40 CA         28.8139   -0.0722   -5.8589 C.3       6 UNK         0.0363 
     41 CB         28.7607    0.0279   -4.3295 C.3       6 UNK        -0.1936 
     42 C          28.5188    1.2970   -6.5004 C.2       6 UNK         0.5081 
     43 O          29.3519    2.1954   -6.3808 O.2       6 UNK        -0.5248 
     44 N          27.3510    1.4505   -7.1406 N.am      7 UNK        -0.4718 
     45 CA         26.9959    2.6303   -7.9310 C.3       7 UNK         0.0273 
     46 CB         25.5299    3.0072   -7.6669 C.3       7 UNK        -0.1935 
     47 C          27.2304    2.3812   -9.4287 C.2       7 UNK         0.5018 
     48 O          27.6414    3.3050  -10.1318 O.2       7 UNK        -0.5186 
     49 N          26.9555    1.1526   -9.8933 N.am      8 UNK        -0.4240 
     50 CA         27.1460    0.7170  -11.2780 C.3       8 UNK         0.0235 
     51 CB         26.4744   -0.6503  -11.4844 C.3       8 UNK        -0.2000 
     52 C          28.6257    0.6662  -11.6932 C.2       8 UNK         0.4941 
     53 O          28.9621    1.1490  -12.7759 O.2       8 UNK        -0.5273 
     54 N          29.4767    0.0934  -10.8331 N.am      9 UNK        -0.4262 
     55 CA         30.9301    0.0770  -10.9923 C.3       9 UNK         0.0264 
     56 CB         31.4678   -1.2775  -10.5033 C.3       9 UNK        -0.1955 
     57 C          31.5561    1.2349  -10.2009 C.2       9 UNK         0.5031 
     58 O          30.9488    1.7404   -9.2542 O.2       9 UNK        -0.5390 
     59 N          32.7800    1.6242  -10.5801 N.am      10 UNK        -0.4204 
     60 CA         33.5546    2.7077   -9.9628 C.3       10 UNK         0.0237 
     61 CB         34.5906    3.2208  -10.9816 C.3       10 UNK        -0.1985 
     62 C          34.1958    2.2868   -8.6231 C.2       10 UNK         0.4970 
     63 O          35.4175    2.3523   -8.4739 O.2       10 UNK        -0.4914 
     64 N          33.3588    1.8452   -7.6796 N.am      11 UNK        -0.4285 
     65 CA         33.7524    1.3667   -6.3443 C.3       11 UNK         0.1007 
     66 C          34.0567    2.4978   -5.3198 C.2       11 UNK         0.5703 
     67 N          33.7869    3.7631   -5.6199 N.am      11 UNK        -0.7361 
     68 O          34.5624    2.2220   -4.2343 O.2       11 UNK        -0.4986 
     69 C69        32.7160    0.3609   -5.7803 C.3       12 UNK        -0.0947 
     70 S70        32.4974   -1.0765   -6.8846 S.3       12 UNK        -0.2240 
     71 C71        32.9603   -2.4683   -5.8145 C.3       12 UNK         0.0194 
     72 H72        27.4733   -7.1664   -0.3765 H         1 UNK         0.0906 
     73 H73        27.1952   -6.0204   -1.6889 H         1 UNK         0.0906 
     74 H74        28.8363   -6.5501   -1.3135 H         1 UNK         0.0906 
     75 H75        26.7151   -3.9792   -0.8851 H         1 UNK         0.3140 
     76 H76        27.2973   -3.1972    1.7839 H         1 UNK         0.1085 
     77 H77        29.5062   -2.5587    1.1291 H         1 UNK         0.0836 
     78 H78        28.5956   -1.0953    1.2724 H         1 UNK         0.0836 
     79 H79        31.4833   -2.1638   -1.0039 H         1 UNK         0.0731 
     80 H80        30.4523   -3.5506   -0.7588 H         1 UNK         0.0731 
     81 H81        32.4211   -1.8547   -3.2039 H         1 UNK         0.1312 
     82 H82        30.9345   -4.1403   -6.5172 H         1 UNK         0.1406 
     83 H83        28.9231   -4.2859   -2.7355 H         1 UNK         0.1631 
     84 H84        28.6628   -6.1074   -4.4759 H         1 UNK         0.0717 
     85 H85        29.2348   -5.8565   -6.0989 H         1 UNK         0.0717 
     86 H86        28.4413   -4.3568   -7.7337 H         1 UNK         0.0934 
     87 H87        26.8313   -4.9558   -7.9680 H         1 UNK         0.0934 
     88 H88        26.7877   -2.7988   -8.9047 H         1 UNK         0.0739 
     89 H89        25.2227   -3.1711   -6.6168 H         1 UNK         0.3093 
     90 H90        22.8950   -0.6353   -7.3026 H         1 UNK         0.0818 
     91 H91        21.9864   -2.3061   -5.7411 H         1 UNK         0.0819 
     92 H92        22.7522   -3.1546   -7.0703 H         1 UNK         0.0819 
     93 H93        23.5591   -3.0484   -5.5040 H         1 UNK         0.0819 
     94 H94        24.6366   -0.8158   -4.8557 H         1 UNK         0.3041 
     95 H95        25.3776    1.6065   -4.2819 H         1 UNK         0.0784 
     96 H96        23.9220    3.5929   -4.6316 H         1 UNK         0.0793 
     97 H97        22.7397    2.9531   -3.4997 H         1 UNK         0.0793 
     98 H98        24.3457    3.4209   -2.9390 H         1 UNK         0.0793 
     99 H99        23.5359    1.0831   -2.1233 H         1 UNK         0.3024 
    100 H100       24.3700   -0.2449   -0.4433 H         1 UNK         0.1171 
    101 H101       22.4540   -1.4211   -1.5763 H         1 UNK         0.0786 
    102 H102       23.1158   -2.4236   -0.2961 H         1 UNK         0.0786 
    103 H103       23.5031   -2.7738   -1.9799 H         1 UNK         0.0786 
    104 H104       26.3568   -2.0640   -1.5077 H         1 UNK         0.2977 
    105 H105       27.2804   -1.5147   -5.6172 H         1 UNK         0.3127 
    106 H106       29.8270   -0.3522   -6.1443 H         1 UNK         0.0770 
    107 H107       27.7964    0.3955   -3.9796 H         1 UNK         0.0814 
    108 H108       29.5253    0.7098   -3.9558 H         1 UNK         0.0814 
    109 H109       28.9400   -0.9424   -3.8697 H         1 UNK         0.0814 
    110 H110       26.7270    0.6561   -7.2142 H         1 UNK         0.2983 
    111 H111       27.6163    3.4808   -7.6395 H         1 UNK         0.0947 
    112 H112       25.2442    3.8876   -8.2440 H         1 UNK         0.0806 
    113 H113       25.3680    3.2441   -6.6160 H         1 UNK         0.0806 
    114 H114       24.8452    2.2035   -7.9397 H         1 UNK         0.0806 
    115 H115       26.5340    0.4791   -9.2594 H         1 UNK         0.3000 
    116 H116       26.6449    1.4416  -11.9234 H         1 UNK         0.0850 
    117 H117       26.5570   -0.9720  -12.5234 H         1 UNK         0.0810 
    118 H118       25.4128   -0.6128  -11.2387 H         1 UNK         0.0810 
    119 H119       26.9338   -1.4217  -10.8665 H         1 UNK         0.0810 
    120 H120       29.1270   -0.2538   -9.9423 H         1 UNK         0.3040 
    121 H121       31.1953    0.1935  -12.0453 H         1 UNK         0.0766 
    122 H122       32.5554   -1.3229  -10.5699 H         1 UNK         0.0812 
    123 H123       31.0709   -2.0977  -11.1015 H         1 UNK         0.0812 
    124 H124       31.1961   -1.4656   -9.4650 H         1 UNK         0.0812 
    125 H125       33.2300    1.1309  -11.3381 H         1 UNK         0.3205 
    126 H126       32.8761    3.5348   -9.7422 H         1 UNK         0.0754 
    127 H127       35.1570    4.0600  -10.5753 H         1 UNK         0.0769 
    128 H128       34.1092    3.5718  -11.8947 H         1 UNK         0.0769 
    129 H129       35.3072    2.4455  -11.2561 H         1 UNK         0.0769 
    130 H130       32.3685    1.8018   -7.9048 H         1 UNK         0.2981 
    131 H131       34.6926    0.8235   -6.4579 H         1 UNK         0.0541 
    132 H132       33.3671    3.9988   -6.5044 H         1 UNK         0.3459 
    133 H133       33.9954    4.4856   -4.9491 H         1 UNK         0.3459 
    134 H134       31.7509    0.8507   -5.6483 H         1 UNK         0.0612 
    135 H135       33.0157    0.0115   -4.7912 H         1 UNK         0.0612 
    136 H136       33.2947   -3.2919   -6.4469 H         1 UNK         0.0624 
    137 H137       33.8182   -2.1969   -5.1973 H         1 UNK         0.0624 
@<TRIPOS>BOND
     1    1    2 1    
     2    1   72 1    
     3    1   73 1    
     4    1   74 1    
     5    2    3 2    
     6    2    4 am   BACKBONE|DICT|INTERRES
     7    4    5 1    
     8    4   75 1    
     9    5    6 1    
    10    5   35 1    
    11    5   76 1    
    12    6    7 1    
    13    6   77 1    
    14    6   78 1    
    15    7    8 1    
    16    8    9 1    
    17    8   79 1    
    18    8   80 1    
    19    9   10 ar   
    20    9   14 ar   
    21   10   11 ar   
    22   10   81 1    
    23   11   12 ar   
    24   11   71 1    
    25   12   13 ar   
    26   12   82 1    
    27   13   14 ar   
    28   13   15 1    
    29   14   83 1    
    30   15   16 1    
    31   15   84 1    
    32   15   85 1    
    33   16   17 1    
    34   17   18 1    
    35   17   86 1    
    36   17   87 1    
    37   18   19 1    
    38   18   37 1    
    39   18   88 1    
    40   19   20 am   BACKBONE|DICT|INTERRES
    41   19   89 1    
    42   20   21 2    
    43   20   22 1    
    44   22   23 1    
    45   22   24 1    
    46   22   90 1    
    47   23   91 1    
    48   23   92 1    
    49   23   93 1    
    50   24   25 am   BACKBONE|DICT|INTERRES
    51   24   94 1    
    52   25   26 2    
    53   25   27 1    
    54   27   28 1    
    55   27   29 1    
    56   27   95 1    
    57   28   96 1    
    58   28   97 1    
    59   28   98 1    
    60   29   30 am   BACKBONE|DICT|INTERRES
    61   29   99 1    
    62   30   31 2    
    63   30   32 1    
    64   32   33 1    
    65   32   34 1    
    66   32  100 1    
    67   33  101 1    
    68   33  102 1    
    69   33  103 1    
    70   34   35 am   BACKBONE|DICT|INTERRES
    71   34  104 1    
    72   35   36 2    
    73   37   38 2    
    74   37   39 am   BACKBONE|DICT|INTERRES
    75   39   40 1    
    76   39  105 1    
    77   40   41 1    
    78   40   42 1    
    79   40  106 1    
    80   41  107 1    
    81   41  108 1    
    82   41  109 1    
    83   42   43 2    
    84   42   44 am   BACKBONE|DICT|INTERRES
    85   44   45 1    
    86   44  110 1    
    87   45   46 1    
    88   45   47 1    
    89   45  111 1    
    90   46  112 1    
    91   46  113 1    
    92   46  114 1    
    93   47   48 2    
    94   47   49 am   BACKBONE|DICT|INTERRES
    95   49   50 1    
    96   49  115 1    
    97   50   51 1    
    98   50   52 1    
    99   50  116 1    
   100   51  117 1    
   101   51  118 1    
   102   51  119 1    
   103   52   53 2    
   104   52   54 am   BACKBONE|DICT|INTERRES
   105   54   55 1    
   106   54  120 1    
   107   55   56 1    
   108   55   57 1    
   109   55  121 1    
   110   56  122 1    
   111   56  123 1    
   112   56  124 1    
   113   57   58 2    
   114   57   59 am   BACKBONE|DICT|INTERRES
   115   59   60 1    
   116   59  125 1    
   117   60   61 1    
   118   60   62 1    
   119   60  126 1    
   120   61  127 1    
   121   61  128 1    
   122   61  129 1    
   123   62   63 2    
   124   62   64 am   BACKBONE|DICT|INTERRES
   125   64   65 1    
   126   64  130 1    
   127   65   66 1    
   128   65   69 1    
   129   65  131 1    
   130   66   67 am   BACKBONE|DICT|INTERRES
   131   66   68 2    
   132   67  132 1    
   133   67  133 1    
   134   69   70 1    
   135   69  134 1    
   136   69  135 1    
   137   70   71 1    
   138   71  136 1    
   139   71  137 1    
@<TRIPOS>SUBSTRUCTURE
     1 UNK         1 GROUP             0       ****    0 ROOT    
