@<TRIPOS>MOLECULE
3R137
137   139    1
SMALL
USER_CHARGES


@<TRIPOS>ATOM
      1 CA         23.7700   -5.8670   -0.8697 C.3       0 UNK        -0.2020 
      2 C          24.5104   -4.6887   -1.4829 C.2       0 UNK         0.4855 
      3 O          24.0805   -3.5452   -1.3224 O.2       0 UNK        -0.5197 
      4 N          25.6119   -4.9576   -2.1996 N.am      1 UNK        -0.4892 
      5 CA         26.4970   -3.9561   -2.8172 C.3       1 UNK         0.0835 
      6 C6         27.7609   -4.5925   -3.4424 C.3       12 UNK        -0.0855 
      7 S7         28.7797   -5.4321   -2.1860 S.3       12 UNK        -0.2931 
      8 C8         30.3634   -5.6204   -3.0727 C.3       12 UNK         0.0378 
      9 C9         31.0805   -4.3069   -3.3850 C.ar      12 UNK        -0.0802 
     10 C10        31.7608   -4.1729   -4.6004 C.ar      12 UNK        -0.0944 
     11 C11        32.4796   -3.0099   -4.8930 C.ar      12 UNK        -0.0787 
     12 C12        32.5149   -1.9738   -3.9585 C.ar      12 UNK        -0.0862 
     13 C13        31.8130   -2.0744   -2.7564 C.ar      12 UNK        -0.0733 
     14 C14        31.1102   -3.2485   -2.4668 C.ar      12 UNK        -0.0832 
     15 C15        31.8277   -0.9169   -1.7697 C.3       12 UNK         0.0240 
     16 S16        30.3360    0.1199   -1.9103 S.3       12 UNK        -0.2522 
     17 C17        30.5774    0.9698   -3.5124 C.3       12 UNK        -0.0967 
     18 CA         29.3565    0.8216   -4.4517 C.3       5 UNK         0.0660 
     19 N          28.1282    1.3186   -3.8119 N.am      5 UNK        -0.4015 
     20 C          26.8960    1.2173   -4.3228 C.2       4 UNK         0.4946 
     21 O          26.6546    0.7436   -5.4334 O.2       4 UNK        -0.5353 
     22 CA         25.7476    1.7968   -3.4955 C.3       4 UNK         0.0277 
     23 CB         25.1850    3.0571   -4.1858 C.3       4 UNK        -0.1981 
     24 N          24.7261    0.7626   -3.3638 N.am      4 UNK        -0.4209 
     25 C          23.6419    0.8149   -2.5780 C.2       3 UNK         0.4942 
     26 O          23.3833    1.7778   -1.8536 O.2       3 UNK        -0.5208 
     27 CA         22.6933   -0.4047   -2.5413 C.3       3 UNK         0.0250 
     28 CB         21.2246   -0.0004   -2.7898 C.3       3 UNK        -0.1990 
     29 N          23.0944   -1.5273   -3.3991 N.am      3 UNK        -0.4232 
     30 C          23.1385   -1.5776   -4.7411 C.2       2 UNK         0.4993 
     31 O          22.7202   -0.6797   -5.4724 O.2       2 UNK        -0.5286 
     32 CA         23.7947   -2.8266   -5.3735 C.3       2 UNK         0.0209 
     33 CB         24.5138   -2.4883   -6.6959 C.3       2 UNK        -0.1931 
     34 N          24.7063   -3.5475   -4.4682 N.am      2 UNK        -0.4546 
     35 C          25.7878   -3.0510   -3.8428 C.2       1 UNK         0.5154 
     36 O          26.1972   -1.9036   -3.9960 O.2       1 UNK        -0.5181 
     37 C          29.6285    1.4755   -5.8294 C.2       5 UNK         0.5014 
     38 O          30.2296    0.8503   -6.7062 O.2       5 UNK        -0.5248 
     39 N          29.1457    2.7124   -6.0198 N.am      6 UNK        -0.4434 
     40 CA         29.1373    3.4101   -7.3057 C.3       6 UNK         0.0363 
     41 CB         28.7171    4.8726   -7.0945 C.3       6 UNK        -0.1936 
     42 C          28.2289    2.7323   -8.3493 C.2       6 UNK         0.5081 
     43 O          28.5930    2.6828   -9.5236 O.2       6 UNK        -0.5248 
     44 N          27.0815    2.2003   -7.9068 N.am      7 UNK        -0.4718 
     45 CA         26.1323    1.4719   -8.7506 C.3       7 UNK         0.0273 
     46 CB         24.7347    1.5111   -8.1087 C.3       7 UNK        -0.1935 
     47 C          26.5695    0.0207   -9.0063 C.2       7 UNK         0.5018 
     48 O          26.1824   -0.5388  -10.0325 O.2       7 UNK        -0.5186 
     49 N          27.3550   -0.5572   -8.0826 N.am      8 UNK        -0.4240 
     50 CA         27.8902   -1.9190   -8.1608 C.3       8 UNK         0.0235 
     51 CB         28.6144   -2.2863   -6.8531 C.3       8 UNK        -0.2000 
     52 C          28.7925   -2.1286   -9.3864 C.2       8 UNK         0.4941 
     53 O          28.4745   -2.9733  -10.2252 O.2       8 UNK        -0.5273 
     54 N          29.8754   -1.3452   -9.4829 N.am      9 UNK        -0.4262 
     55 CA         30.8174   -1.3729  -10.6075 C.3       9 UNK         0.0264 
     56 CB         31.6353   -2.6873  -10.6139 C.3       9 UNK        -0.1955 
     57 C          31.7195   -0.1262  -10.6287 C.2       9 UNK         0.5031 
     58 O          32.8911   -0.2440  -10.9934 O.2       9 UNK        -0.5390 
     59 N          31.1799    1.0420  -10.2363 N.am      10 UNK        -0.4204 
     60 CA         31.8903    2.3270  -10.1121 C.3       10 UNK         0.0237 
     61 CB         32.2732    2.8784  -11.5030 C.3       10 UNK        -0.1985 
     62 C          33.0868    2.2507   -9.1400 C.2       10 UNK         0.4970 
     63 O          34.1675    2.7572   -9.4487 O.2       10 UNK        -0.4914 
     64 N          32.8707    1.5892   -7.9979 N.am      11 UNK        -0.4285 
     65 CA         33.9037    1.1832   -7.0335 C.3       11 UNK         0.1007 
     66 C          33.6585    1.7256   -5.5979 C.2       11 UNK         0.5703 
     67 N          32.8347    2.7515   -5.4176 N.am      11 UNK        -0.7361 
     68 O          34.2466    1.2418   -4.6342 O.2       11 UNK        -0.4986 
     69 C69        34.1864   -0.3469   -7.1126 C.3       12 UNK        -0.0947 
     70 S70        32.6931   -1.4035   -7.1393 S.3       12 UNK        -0.2240 
     71 C71        33.2279   -2.8756   -6.2109 C.3       12 UNK         0.0194 
     72 H72        22.7484   -5.9056   -1.2468 H         1 UNK         0.0906 
     73 H73        24.2528   -6.8169   -1.0986 H         1 UNK         0.0906 
     74 H74        23.7292   -5.7600    0.2139 H         1 UNK         0.0906 
     75 H75        25.9251   -5.9150   -2.2837 H         1 UNK         0.3140 
     76 H76        26.8231   -3.2911   -2.0139 H         1 UNK         0.1085 
     77 H77        28.3731   -3.8253   -3.9222 H         1 UNK         0.0836 
     78 H78        27.4945   -5.3076   -4.2230 H         1 UNK         0.0836 
     79 H79        31.0279   -6.2362   -2.4655 H         1 UNK         0.0731 
     80 H80        30.1772   -6.1822   -3.9896 H         1 UNK         0.0731 
     81 H81        31.7443   -4.9839   -5.3158 H         1 UNK         0.1312 
     82 H82        33.0796   -1.0794   -4.1804 H         1 UNK         0.1406 
     83 H83        30.5864   -3.3351   -1.5246 H         1 UNK         0.1631 
     84 H84        32.7150   -0.2974   -1.9121 H         1 UNK         0.0717 
     85 H85        31.8898   -1.3068   -0.7527 H         1 UNK         0.0717 
     86 H86        31.4698    0.5783   -3.9982 H         1 UNK         0.0934 
     87 H87        30.7834    2.0224   -3.3103 H         1 UNK         0.0934 
     88 H88        29.2062   -0.2438   -4.6387 H         1 UNK         0.0739 
     89 H89        28.2453    1.7072   -2.8872 H         1 UNK         0.3093 
     90 H90        26.1096    2.0578   -2.4990 H         1 UNK         0.0818 
     91 H91        24.4162    3.5393   -3.5827 H         1 UNK         0.0819 
     92 H92        25.9687    3.7970   -4.3527 H         1 UNK         0.0819 
     93 H93        24.7462    2.8201   -5.1560 H         1 UNK         0.0819 
     94 H94        24.9121   -0.0771   -3.9043 H         1 UNK         0.3041 
     95 H95        22.7549   -0.7904   -1.5226 H         1 UNK         0.0784 
     96 H96        20.8843    0.7133   -2.0385 H         1 UNK         0.0793 
     97 H97        21.0906    0.4712   -3.7636 H         1 UNK         0.0793 
     98 H98        20.5606   -0.8632   -2.7388 H         1 UNK         0.0793 
     99 H99        23.4781   -2.3181   -2.8897 H         1 UNK         0.3024 
    100 H100       22.9766   -3.5112   -5.6033 H         1 UNK         0.1171 
    101 H101       24.9785   -3.3715   -7.1332 H         1 UNK         0.0786 
    102 H102       25.2888   -1.7363   -6.5445 H         1 UNK         0.0786 
    103 H103       23.8180   -2.0895   -7.4351 H         1 UNK         0.0786 
    104 H104       24.4439   -4.4981   -4.2457 H         1 UNK         0.2977 
    105 H105       28.6793    3.1682   -5.2497 H         1 UNK         0.3127 
    106 H106       30.1574    3.4047   -7.6900 H         1 UNK         0.0770 
    107 H107       27.7086    4.9503   -6.6863 H         1 UNK         0.0814 
    108 H108       28.7291    5.4204   -8.0379 H         1 UNK         0.0814 
    109 H109       29.3964    5.3874   -6.4147 H         1 UNK         0.0814 
    110 H110       26.8976    2.1749   -6.9108 H         1 UNK         0.2983 
    111 H111       26.0720    1.9727   -9.7197 H         1 UNK         0.0947 
    112 H112       23.9972    1.0373   -8.7577 H         1 UNK         0.0806 
    113 H113       24.4039    2.5351   -7.9360 H         1 UNK         0.0806 
    114 H114       24.7066    0.9830   -7.1548 H         1 UNK         0.0806 
    115 H115       27.5363   -0.0372   -7.2319 H         1 UNK         0.3000 
    116 H116       27.0376   -2.5917   -8.2682 H         1 UNK         0.0850 
    117 H117       28.9302   -3.3302   -6.8635 H         1 UNK         0.0810 
    118 H118       27.9629   -2.1533   -5.9903 H         1 UNK         0.0810 
    119 H119       29.5075   -1.6837   -6.6905 H         1 UNK         0.0810 
    120 H120       30.0854   -0.7074   -8.7243 H         1 UNK         0.3040 
    121 H121       30.2355   -1.3339  -11.5307 H         1 UNK         0.0766 
    122 H122       32.3094   -2.7282  -11.4703 H         1 UNK         0.0812 
    123 H123       30.9975   -3.5679  -10.6798 H         1 UNK         0.0812 
    124 H124       32.2445   -2.7848   -9.7158 H         1 UNK         0.0812 
    125 H125       30.1953    1.0747  -10.0012 H         1 UNK         0.3205 
    126 H126       31.1906    3.0368   -9.6755 H         1 UNK         0.0754 
    127 H127       32.6925    3.8822  -11.4235 H         1 UNK         0.0769 
    128 H128       31.4023    2.9438  -12.1553 H         1 UNK         0.0769 
    129 H129       33.0175    2.2542  -11.9985 H         1 UNK         0.0769 
    130 H130       31.9435    1.2335   -7.7880 H         1 UNK         0.2981 
    131 H131       34.8413    1.6692   -7.3070 H         1 UNK         0.0541 
    132 H132       32.3798    3.1829   -6.2048 H         1 UNK         0.3459 
    133 H133       32.7174    3.1298   -4.4920 H         1 UNK         0.3459 
    134 H134       34.8557   -0.6589   -6.3099 H         1 UNK         0.0612 
    135 H135       34.7284   -0.5548   -8.0363 H         1 UNK         0.0612 
    136 H136       33.0548   -3.7496   -6.8404 H         1 UNK         0.0624 
    137 H137       34.3005   -2.8483   -6.0175 H         1 UNK         0.0624 
@<TRIPOS>BOND
     1    1    2 1    
     2    1   72 1    
     3    1   73 1    
     4    1   74 1    
     5    2    3 2    
     6    2    4 am   BACKBONE|DICT|INTERRES
     7    4    5 1    
     8    4   75 1    
     9    5    6 1    
    10    5   35 1    
    11    5   76 1    
    12    6    7 1    
    13    6   77 1    
    14    6   78 1    
    15    7    8 1    
    16    8    9 1    
    17    8   79 1    
    18    8   80 1    
    19    9   10 ar   
    20    9   14 ar   
    21   10   11 ar   
    22   10   81 1    
    23   11   12 ar   
    24   11   71 1    
    25   12   13 ar   
    26   12   82 1    
    27   13   14 ar   
    28   13   15 1    
    29   14   83 1    
    30   15   16 1    
    31   15   84 1    
    32   15   85 1    
    33   16   17 1    
    34   17   18 1    
    35   17   86 1    
    36   17   87 1    
    37   18   19 1    
    38   18   37 1    
    39   18   88 1    
    40   19   20 am   BACKBONE|DICT|INTERRES
    41   19   89 1    
    42   20   21 2    
    43   20   22 1    
    44   22   23 1    
    45   22   24 1    
    46   22   90 1    
    47   23   91 1    
    48   23   92 1    
    49   23   93 1    
    50   24   25 am   BACKBONE|DICT|INTERRES
    51   24   94 1    
    52   25   26 2    
    53   25   27 1    
    54   27   28 1    
    55   27   29 1    
    56   27   95 1    
    57   28   96 1    
    58   28   97 1    
    59   28   98 1    
    60   29   30 am   BACKBONE|DICT|INTERRES
    61   29   99 1    
    62   30   31 2    
    63   30   32 1    
    64   32   33 1    
    65   32   34 1    
    66   32  100 1    
    67   33  101 1    
    68   33  102 1    
    69   33  103 1    
    70   34   35 am   BACKBONE|DICT|INTERRES
    71   34  104 1    
    72   35   36 2    
    73   37   38 2    
    74   37   39 am   BACKBONE|DICT|INTERRES
    75   39   40 1    
    76   39  105 1    
    77   40   41 1    
    78   40   42 1    
    79   40  106 1    
    80   41  107 1    
    81   41  108 1    
    82   41  109 1    
    83   42   43 2    
    84   42   44 am   BACKBONE|DICT|INTERRES
    85   44   45 1    
    86   44  110 1    
    87   45   46 1    
    88   45   47 1    
    89   45  111 1    
    90   46  112 1    
    91   46  113 1    
    92   46  114 1    
    93   47   48 2    
    94   47   49 am   BACKBONE|DICT|INTERRES
    95   49   50 1    
    96   49  115 1    
    97   50   51 1    
    98   50   52 1    
    99   50  116 1    
   100   51  117 1    
   101   51  118 1    
   102   51  119 1    
   103   52   53 2    
   104   52   54 am   BACKBONE|DICT|INTERRES
   105   54   55 1    
   106   54  120 1    
   107   55   56 1    
   108   55   57 1    
   109   55  121 1    
   110   56  122 1    
   111   56  123 1    
   112   56  124 1    
   113   57   58 2    
   114   57   59 am   BACKBONE|DICT|INTERRES
   115   59   60 1    
   116   59  125 1    
   117   60   61 1    
   118   60   62 1    
   119   60  126 1    
   120   61  127 1    
   121   61  128 1    
   122   61  129 1    
   123   62   63 2    
   124   62   64 am   BACKBONE|DICT|INTERRES
   125   64   65 1    
   126   64  130 1    
   127   65   66 1    
   128   65   69 1    
   129   65  131 1    
   130   66   67 am   BACKBONE|DICT|INTERRES
   131   66   68 2    
   132   67  132 1    
   133   67  133 1    
   134   69   70 1    
   135   69  134 1    
   136   69  135 1    
   137   70   71 1    
   138   71  136 1    
   139   71  137 1    
@<TRIPOS>SUBSTRUCTURE
     1 UNK         1 GROUP             0       ****    0 ROOT    
