@<TRIPOS>MOLECULE
3R137
137   139    1
SMALL
USER_CHARGES


@<TRIPOS>ATOM
      1 CA         25.0938   -6.6657   -2.0538 C.3       0 UNK        -0.2020 
      2 C          25.5880   -5.2281   -2.0332 C.2       0 UNK         0.4855 
      3 O          25.4927   -4.5411   -3.0499 O.2       0 UNK        -0.5197 
      4 N          26.0920   -4.7669   -0.8789 N.am      1 UNK        -0.4892 
      5 CA         26.6845   -3.4406   -0.6334 C.3       1 UNK         0.0835 
      6 C6         28.0932   -3.2702   -1.2580 C.3       12 UNK        -0.0855 
      7 S7         29.2983   -4.5544   -0.7787 S.3       12 UNK        -0.2931 
      8 C8         30.8580   -3.6021   -0.7388 C.3       12 UNK         0.0378 
      9 C9         31.0490   -2.7393   -1.9820 C.ar      12 UNK        -0.0802 
     10 C10        31.1873   -3.3332   -3.2402 C.ar      12 UNK        -0.0944 
     11 C11        31.3065   -2.5537   -4.3952 C.ar      12 UNK        -0.0787 
     12 C12        31.2925   -1.1576   -4.2698 C.ar      12 UNK        -0.0862 
     13 C13        31.1677   -0.5468   -3.0180 C.ar      12 UNK        -0.0733 
     14 C14        31.0613   -1.3448   -1.8755 C.ar      12 UNK        -0.0832 
     15 C15        31.1694    0.9769   -2.9190 C.3       12 UNK         0.0240 
     16 S16        29.7740    1.6904   -1.9729 S.3       12 UNK        -0.2522 
     17 C17        28.3082    0.7221   -2.4759 C.3       12 UNK        -0.0967 
     18 CA         28.0375    0.6464   -3.9992 C.3       5 UNK         0.0660 
     19 N          27.3916   -0.6219   -4.3658 N.am      5 UNK        -0.4015 
     20 C          27.3962   -1.1225   -5.6101 C.2       4 UNK         0.4946 
     21 O          27.8941   -0.5352   -6.5686 O.2       4 UNK        -0.5353 
     22 CA         26.6950   -2.4662   -5.8510 C.3       4 UNK         0.0277 
     23 CB         27.6402   -3.6430   -5.5711 C.3       4 UNK        -0.1981 
     24 N          25.4562   -2.6248   -5.0884 N.am      4 UNK        -0.4209 
     25 C          24.3163   -1.9846   -5.3840 C.2       3 UNK         0.4942 
     26 O          24.2296   -1.1106   -6.2458 O.2       3 UNK        -0.5208 
     27 CA         23.0615   -2.3964   -4.6033 C.3       3 UNK         0.0250 
     28 CB         22.6008   -3.8086   -5.0039 C.3       3 UNK        -0.1990 
     29 N          23.2969   -2.3460   -3.1629 N.am      3 UNK        -0.4232 
     30 C          23.0716   -1.2690   -2.3984 C.2       2 UNK         0.4993 
     31 O          22.5930   -0.2160   -2.8214 O.2       2 UNK        -0.5286 
     32 CA         23.4357   -1.3729   -0.9045 C.3       2 UNK         0.0209 
     33 CB         22.1848   -1.6911   -0.0690 C.3       2 UNK        -0.1931 
     34 N          24.4800   -2.3579   -0.5997 N.am      2 UNK        -0.4546 
     35 C          25.7401   -2.2900   -1.0505 C.2       1 UNK         0.5154 
     36 O          26.1368   -1.4031   -1.8096 O.2       1 UNK        -0.5181 
     37 C          27.2820    1.8823   -4.5357 C.2       5 UNK         0.5014 
     38 O          27.8725    2.9582   -4.6303 O.2       5 UNK        -0.5248 
     39 N          26.0148    1.7099   -4.9426 N.am      6 UNK        -0.4434 
     40 CA         25.2481    2.7103   -5.6903 C.3       6 UNK         0.0363 
     41 CB         23.7543    2.3525   -5.6334 C.3       6 UNK        -0.1936 
     42 C          25.7197    2.8590   -7.1526 C.2       6 UNK         0.5081 
     43 O          25.3818    3.8577   -7.7882 O.2       6 UNK        -0.5248 
     44 N          26.4926    1.8874   -7.6580 N.am      7 UNK        -0.4718 
     45 CA         27.0891    1.8674   -8.9922 C.3       7 UNK         0.0273 
     46 CB         26.4241    0.7515   -9.8196 C.3       7 UNK        -0.1935 
     47 C          28.6125    1.6846   -8.8773 C.2       7 UNK         0.5018 
     48 O          29.2041    0.9460   -9.6669 O.2       7 UNK        -0.5186 
     49 N          29.2300    2.3712   -7.9011 N.am      8 UNK        -0.4240 
     50 CA         30.6494    2.2688   -7.5295 C.3       8 UNK         0.0235 
     51 CB         30.9487    3.2446   -6.3810 C.3       8 UNK        -0.2000 
     52 C          31.6587    2.4810   -8.6738 C.2       8 UNK         0.4941 
     53 O          32.7743    1.9688   -8.5872 O.2       8 UNK        -0.5273 
     54 N          31.2502    3.1840   -9.7394 N.am      9 UNK        -0.4262 
     55 CA         32.0051    3.3338  -10.9860 C.3       9 UNK         0.0264 
     56 CB         31.2737    4.3262  -11.9043 C.3       9 UNK        -0.1955 
     57 C          32.2605    2.0039  -11.7246 C.2       9 UNK         0.5031 
     58 O          33.2651    1.9031  -12.4302 O.2       9 UNK        -0.5390 
     59 N          31.3734    1.0110  -11.5511 N.am      10 UNK        -0.4204 
     60 CA         31.5551   -0.3469  -12.0704 C.3       10 UNK         0.0237 
     61 CB         30.1885   -1.0391  -12.2028 C.3       10 UNK        -0.1985 
     62 C          32.4987   -1.1780  -11.1846 C.2       10 UNK         0.4970 
     63 O          33.2446   -2.0040  -11.7121 O.2       10 UNK        -0.4914 
     64 N          32.4491   -0.9487   -9.8659 N.am      11 UNK        -0.4285 
     65 CA         33.3298   -1.5764   -8.8701 C.3       11 UNK         0.1007 
     66 C          34.7902   -1.0564   -8.9504 C.2       11 UNK         0.5703 
     67 N          35.0023    0.2456   -9.0956 N.am      11 UNK        -0.7361 
     68 O          35.7340   -1.8404   -8.8849 O.2       11 UNK        -0.4986 
     69 C69        32.7708   -1.4214   -7.4330 C.3       12 UNK        -0.0947 
     70 S70        31.1555   -2.2466   -7.2271 S.3       12 UNK        -0.2240 
     71 C71        31.4514   -3.2708   -5.7415 C.3       12 UNK         0.0194 
     72 H72        24.0360   -6.6942   -2.3137 H         1 UNK         0.0906 
     73 H73        25.6436   -7.2373   -2.8009 H         1 UNK         0.0906 
     74 H74        25.2212   -7.1565   -1.0892 H         1 UNK         0.0906 
     75 H75        26.1279   -5.3941   -0.0869 H         1 UNK         0.3140 
     76 H76        26.7982   -3.3512    0.4483 H         1 UNK         0.1085 
     77 H77        28.4976   -2.3033   -0.9573 H         1 UNK         0.0836 
     78 H78        28.0341   -3.2531   -2.3456 H         1 UNK         0.0836 
     79 H79        31.6958   -4.2949   -0.6487 H         1 UNK         0.0731 
     80 H80        30.8699   -2.9882    0.1632 H         1 UNK         0.0731 
     81 H81        31.1819   -4.4120   -3.3192 H         1 UNK         0.1312 
     82 H82        31.3787   -0.5311   -5.1443 H         1 UNK         0.1406 
     83 H83        30.9617   -0.8748   -0.9063 H         1 UNK         0.1631 
     84 H84        31.1718    1.4253   -3.9127 H         1 UNK         0.0717 
     85 H85        32.1012    1.2930   -2.4487 H         1 UNK         0.0717 
     86 H86        28.4698   -0.2796   -2.0817 H         1 UNK         0.0934 
     87 H87        27.4342    1.0981   -1.9404 H         1 UNK         0.0934 
     88 H88        28.9974    0.6502   -4.5159 H         1 UNK         0.0739 
     89 H89        26.9220   -1.1214   -3.6154 H         1 UNK         0.3093 
     90 H90        26.4336   -2.5066   -6.9110 H         1 UNK         0.0818 
     91 H91        28.4965   -3.6077   -6.2438 H         1 UNK         0.0819 
     92 H92        28.0238   -3.6293   -4.5523 H         1 UNK         0.0819 
     93 H93        27.1440   -4.6005   -5.7299 H         1 UNK         0.0819 
     94 H94        25.4559   -3.3296   -4.3502 H         1 UNK         0.3041 
     95 H95        22.2611   -1.7018   -4.8685 H         1 UNK         0.0784 
     96 H96        22.4199   -3.8686   -6.0780 H         1 UNK         0.0793 
     97 H97        23.3418   -4.5693   -4.7555 H         1 UNK         0.0793 
     98 H98        21.6695   -4.0755   -4.5041 H         1 UNK         0.0793 
     99 H99        23.7556   -3.1473   -2.7489 H         1 UNK         0.3024 
    100 H100       23.8103   -0.3919   -0.6029 H         1 UNK         0.1171 
    101 H101       22.4030   -1.6678    0.9989 H         1 UNK         0.0786 
    102 H102       21.3964   -0.9592   -0.2518 H         1 UNK         0.0786 
    103 H103       21.7783   -2.6743   -0.3092 H         1 UNK         0.0786 
    104 H104       24.2197   -3.1365   -0.0110 H         1 UNK         0.2977 
    105 H105       25.5962    0.7945   -4.8527 H         1 UNK         0.3127 
    106 H106       25.3824    3.6787   -5.2034 H         1 UNK         0.0770 
    107 H107       23.5406    1.4213   -6.1579 H         1 UNK         0.0814 
    108 H108       23.1508    3.1316   -6.1008 H         1 UNK         0.0814 
    109 H109       23.4066    2.2462   -4.6054 H         1 UNK         0.0814 
    110 H110       26.7604    1.1068   -7.0656 H         1 UNK         0.2983 
    111 H111       26.9254    2.8190   -9.5021 H         1 UNK         0.0947 
    112 H112       25.3463    0.8984   -9.8891 H         1 UNK         0.0806 
    113 H113       26.6012   -0.2308   -9.3790 H         1 UNK         0.0806 
    114 H114       26.8147    0.7298  -10.8379 H         1 UNK         0.0806 
    115 H115       28.6542    2.9448   -7.3004 H         1 UNK         0.3000 
    116 H116       30.7991    1.2523   -7.1606 H         1 UNK         0.0850 
    117 H117       31.9907    3.1714   -6.0657 H         1 UNK         0.0810 
    118 H118       30.3357    3.0332   -5.5063 H         1 UNK         0.0810 
    119 H119       30.7683    4.2795   -6.6741 H         1 UNK         0.0810 
    120 H120       30.3190    3.5730   -9.7209 H         1 UNK         0.3040 
    121 H121       32.9797    3.7560  -10.7314 H         1 UNK         0.0766 
    122 H122       31.1644    5.3015  -11.4295 H         1 UNK         0.0812 
    123 H123       30.2793    3.9689  -12.1750 H         1 UNK         0.0812 
    124 H124       31.8278    4.4802  -12.8314 H         1 UNK         0.0812 
    125 H125       30.5732    1.1559  -10.9375 H         1 UNK         0.3205 
    126 H126       31.9981   -0.2863  -13.0670 H         1 UNK         0.0754 
    127 H127       30.2959   -2.0287  -12.6490 H         1 UNK         0.0769 
    128 H128       29.5136   -0.4671  -12.8397 H         1 UNK         0.0769 
    129 H129       29.7039   -1.1708  -11.2344 H         1 UNK         0.0769 
    130 H130       31.8137   -0.2479   -9.5161 H         1 UNK         0.2981 
    131 H131       33.3650   -2.6448   -9.0930 H         1 UNK         0.0541 
    132 H132       34.2200    0.8953   -9.0615 H         1 UNK         0.3459 
    133 H133       35.9456    0.5930   -9.1537 H         1 UNK         0.3459 
    134 H134       32.6579   -0.3674   -7.1773 H         1 UNK         0.0612 
    135 H135       33.4751   -1.8313   -6.7070 H         1 UNK         0.0612 
    136 H136       32.4430   -3.7208   -5.8023 H         1 UNK         0.0624 
    137 H137       30.7461   -4.1017   -5.7719 H         1 UNK         0.0624 
@<TRIPOS>BOND
     1    1    2 1    
     2    1   72 1    
     3    1   73 1    
     4    1   74 1    
     5    2    3 2    
     6    2    4 am   BACKBONE|DICT|INTERRES
     7    4    5 1    
     8    4   75 1    
     9    5    6 1    
    10    5   35 1    
    11    5   76 1    
    12    6    7 1    
    13    6   77 1    
    14    6   78 1    
    15    7    8 1    
    16    8    9 1    
    17    8   79 1    
    18    8   80 1    
    19    9   10 ar   
    20    9   14 ar   
    21   10   11 ar   
    22   10   81 1    
    23   11   12 ar   
    24   11   71 1    
    25   12   13 ar   
    26   12   82 1    
    27   13   14 ar   
    28   13   15 1    
    29   14   83 1    
    30   15   16 1    
    31   15   84 1    
    32   15   85 1    
    33   16   17 1    
    34   17   18 1    
    35   17   86 1    
    36   17   87 1    
    37   18   19 1    
    38   18   37 1    
    39   18   88 1    
    40   19   20 am   BACKBONE|DICT|INTERRES
    41   19   89 1    
    42   20   21 2    
    43   20   22 1    
    44   22   23 1    
    45   22   24 1    
    46   22   90 1    
    47   23   91 1    
    48   23   92 1    
    49   23   93 1    
    50   24   25 am   BACKBONE|DICT|INTERRES
    51   24   94 1    
    52   25   26 2    
    53   25   27 1    
    54   27   28 1    
    55   27   29 1    
    56   27   95 1    
    57   28   96 1    
    58   28   97 1    
    59   28   98 1    
    60   29   30 am   BACKBONE|DICT|INTERRES
    61   29   99 1    
    62   30   31 2    
    63   30   32 1    
    64   32   33 1    
    65   32   34 1    
    66   32  100 1    
    67   33  101 1    
    68   33  102 1    
    69   33  103 1    
    70   34   35 am   BACKBONE|DICT|INTERRES
    71   34  104 1    
    72   35   36 2    
    73   37   38 2    
    74   37   39 am   BACKBONE|DICT|INTERRES
    75   39   40 1    
    76   39  105 1    
    77   40   41 1    
    78   40   42 1    
    79   40  106 1    
    80   41  107 1    
    81   41  108 1    
    82   41  109 1    
    83   42   43 2    
    84   42   44 am   BACKBONE|DICT|INTERRES
    85   44   45 1    
    86   44  110 1    
    87   45   46 1    
    88   45   47 1    
    89   45  111 1    
    90   46  112 1    
    91   46  113 1    
    92   46  114 1    
    93   47   48 2    
    94   47   49 am   BACKBONE|DICT|INTERRES
    95   49   50 1    
    96   49  115 1    
    97   50   51 1    
    98   50   52 1    
    99   50  116 1    
   100   51  117 1    
   101   51  118 1    
   102   51  119 1    
   103   52   53 2    
   104   52   54 am   BACKBONE|DICT|INTERRES
   105   54   55 1    
   106   54  120 1    
   107   55   56 1    
   108   55   57 1    
   109   55  121 1    
   110   56  122 1    
   111   56  123 1    
   112   56  124 1    
   113   57   58 2    
   114   57   59 am   BACKBONE|DICT|INTERRES
   115   59   60 1    
   116   59  125 1    
   117   60   61 1    
   118   60   62 1    
   119   60  126 1    
   120   61  127 1    
   121   61  128 1    
   122   61  129 1    
   123   62   63 2    
   124   62   64 am   BACKBONE|DICT|INTERRES
   125   64   65 1    
   126   64  130 1    
   127   65   66 1    
   128   65   69 1    
   129   65  131 1    
   130   66   67 am   BACKBONE|DICT|INTERRES
   131   66   68 2    
   132   67  132 1    
   133   67  133 1    
   134   69   70 1    
   135   69  134 1    
   136   69  135 1    
   137   70   71 1    
   138   71  136 1    
   139   71  137 1    
@<TRIPOS>SUBSTRUCTURE
     1 UNK         1 GROUP             0       ****    0 ROOT    
