@<TRIPOS>MOLECULE
3R137
137   139    1
SMALL
USER_CHARGES


@<TRIPOS>ATOM
      1 CA         26.4146   -6.5558    1.8188 C.3       0 UNK        -0.2020 
      2 C          26.5375   -5.0474    1.6630 C.2       0 UNK         0.4855 
      3 O          25.8236   -4.3039    2.3361 O.2       0 UNK        -0.5197 
      4 N          27.4416   -4.5919    0.7849 N.am      1 UNK        -0.4892 
      5 CA         27.6777   -3.1757    0.4751 C.3       1 UNK         0.0835 
      6 C6         29.0016   -3.0026   -0.3116 C.3       12 UNK        -0.0855 
      7 S7         29.6392   -1.2919   -0.3464 S.3       12 UNK        -0.2931 
      8 C8         28.9638   -0.6357   -1.9080 C.3       12 UNK         0.0378 
      9 C9         29.6784   -1.1721   -3.1414 C.ar      12 UNK        -0.0802 
     10 C10        30.7653   -0.4780   -3.6808 C.ar      12 UNK        -0.0944 
     11 C11        31.4139   -0.9502   -4.8265 C.ar      12 UNK        -0.0787 
     12 C12        30.9859   -2.1462   -5.4129 C.ar      12 UNK        -0.0862 
     13 C13        29.9014   -2.8513   -4.8833 C.ar      12 UNK        -0.0733 
     14 C14        29.2366   -2.3434   -3.7637 C.ar      12 UNK        -0.0832 
     15 C15        29.4838   -4.1865   -5.4871 C.3       12 UNK         0.0240 
     16 S16        28.4504   -4.0069   -6.9748 S.3       12 UNK        -0.2522 
     17 C17        26.8758   -3.4058   -6.2732 C.3       12 UNK        -0.0967 
     18 CA         26.2777   -2.2155   -7.0592 C.3       5 UNK         0.0660 
     19 N          24.9338   -1.8782   -6.5952 N.am      5 UNK        -0.4015 
     20 C          24.0197   -1.2302   -7.3320 C.2       4 UNK         0.4946 
     21 O          24.1654   -0.9541   -8.5228 O.2       4 UNK        -0.5353 
     22 CA         22.7316   -0.7914   -6.6124 C.3       4 UNK         0.0277 
     23 CB         21.6540   -1.8821   -6.7219 C.3       4 UNK        -0.1981 
     24 N          22.9482   -0.4579   -5.2015 N.am      4 UNK        -0.4209 
     25 C          23.6983    0.5669   -4.7698 C.2       3 UNK         0.4942 
     26 O          24.2369    1.3814   -5.5184 O.2       3 UNK        -0.5208 
     27 CA         23.9245    0.6720   -3.2514 C.3       3 UNK         0.0250 
     28 CB         22.8443    1.5552   -2.6074 C.3       3 UNK        -0.1990 
     29 N          23.9687   -0.6269   -2.5694 N.am      3 UNK        -0.4232 
     30 C          24.8853   -1.5797   -2.7914 C.2       2 UNK         0.4993 
     31 O          25.7880   -1.4832   -3.6274 O.2       2 UNK        -0.5286 
     32 CA         24.7221   -2.8884   -1.9992 C.3       2 UNK         0.0209 
     33 CB         24.3489   -4.0387   -2.9495 C.3       2 UNK        -0.1931 
     34 N          25.9221   -3.2611   -1.2450 N.am      2 UNK        -0.4546 
     35 C          26.4658   -2.5446   -0.2487 C.2       1 UNK         0.5154 
     36 O          26.0245   -1.4592    0.1327 O.2       1 UNK        -0.5181 
     37 C          27.1685   -0.9598   -7.0317 C.2       5 UNK         0.5014 
     38 O          27.8181   -0.6732   -8.0360 O.2       5 UNK        -0.5248 
     39 N          27.1359   -0.2014   -5.9237 N.am      6 UNK        -0.4434 
     40 CA         27.9014    1.0380   -5.7216 C.3       6 UNK         0.0363 
     41 CB         27.5481    1.6417   -4.3530 C.3       6 UNK        -0.1936 
     42 C          27.6888    2.1007   -6.8156 C.2       6 UNK         0.5081 
     43 O          28.6301    2.8114   -7.1652 O.2       6 UNK        -0.5248 
     44 N          26.4576    2.1862   -7.3345 N.am      7 UNK        -0.4718 
     45 CA         26.0701    3.0732   -8.4312 C.3       7 UNK         0.0273 
     46 CB         24.5357    3.1684   -8.4618 C.3       7 UNK        -0.1935 
     47 C          26.6034    2.6417   -9.8117 C.2       7 UNK         0.5018 
     48 O          26.6356    3.4785  -10.7156 O.2       7 UNK        -0.5186 
     49 N          26.9742    1.3638   -9.9705 N.am      8 UNK        -0.4240 
     50 CA         27.3908    0.7687  -11.2424 C.3       8 UNK         0.0235 
     51 CB         26.5897   -0.5244  -11.4729 C.3       8 UNK        -0.2000 
     52 C          28.8977    0.4763  -11.2833 C.2       8 UNK         0.4941 
     53 O          29.5348    0.7409  -12.3042 O.2       8 UNK        -0.5273 
     54 N          29.4351   -0.0909  -10.1972 N.am      9 UNK        -0.4262 
     55 CA         30.8332   -0.4959  -10.0616 C.3       9 UNK         0.0264 
     56 CB         30.9384   -1.4877   -8.8937 C.3       9 UNK        -0.1955 
     57 C          31.7712    0.6989   -9.8300 C.2       9 UNK         0.5031 
     58 O          31.3468    1.7329   -9.3094 O.2       9 UNK        -0.5390 
     59 N          33.0469    0.5070  -10.1804 N.am      10 UNK        -0.4204 
     60 CA         34.1304    1.4614   -9.9680 C.3       10 UNK         0.0237 
     61 CB         34.6898    1.9073  -11.3324 C.3       10 UNK        -0.1985 
     62 C          35.1936    0.7822   -9.0972 C.2       10 UNK         0.4970 
     63 O          36.0912    0.1259   -9.6286 O.2       10 UNK        -0.4914 
     64 N          35.0528    0.9258   -7.7742 N.am      11 UNK        -0.4285 
     65 CA         36.0173    0.4271   -6.7776 C.3       11 UNK         0.1007 
     66 C          37.3380    1.2508   -6.6972 C.2       11 UNK         0.5703 
     67 N          37.4260    2.4374   -7.2878 N.am      11 UNK        -0.7361 
     68 O          38.3071    0.7970   -6.0931 O.2       11 UNK        -0.4986 
     69 C69        35.3688    0.2859   -5.3750 C.3       12 UNK        -0.0947 
     70 S70        34.1425   -1.0616   -5.2840 S.3       12 UNK        -0.2240 
     71 C71        32.5685   -0.1615   -5.4301 C.3       12 UNK         0.0194 
     72 H72        25.4034   -6.8771    1.5702 H         1 UNK         0.0906 
     73 H73        27.1090   -7.0922    1.1724 H         1 UNK         0.0906 
     74 H74        26.6199   -6.8444    2.8494 H         1 UNK         0.0906 
     75 H75        28.0069   -5.2564    0.2749 H         1 UNK         0.3140 
     76 H76        27.7851   -2.6538    1.4292 H         1 UNK         0.1085 
     77 H77        28.9227   -3.4149   -1.3146 H         1 UNK         0.0836 
     78 H78        29.7803   -3.5947    0.1722 H         1 UNK         0.0836 
     79 H79        27.8964   -0.8424   -1.9732 H         1 UNK         0.0731 
     80 H80        29.0542    0.4510   -1.8788 H         1 UNK         0.0731 
     81 H81        31.0989    0.4376   -3.2118 H         1 UNK         0.1312 
     82 H82        31.5042   -2.5343   -6.2785 H         1 UNK         0.1406 
     83 H83        28.3794   -2.8683   -3.3674 H         1 UNK         0.1631 
     84 H84        28.9538   -4.7934   -4.7512 H         1 UNK         0.0717 
     85 H85        30.3771   -4.7531   -5.7538 H         1 UNK         0.0717 
     86 H86        26.1757   -4.2426   -6.2884 H         1 UNK         0.0934 
     87 H87        27.0026   -3.1489   -5.2231 H         1 UNK         0.0934 
     88 H88        26.1979   -2.5284   -8.1031 H         1 UNK         0.0739 
     89 H89        24.7550   -2.0144   -5.6103 H         1 UNK         0.3093 
     90 H90        22.3651    0.1062   -7.1157 H         1 UNK         0.0818 
     91 H91        20.7095   -1.5523   -6.2889 H         1 UNK         0.0819 
     92 H92        21.4589   -2.1326   -7.7658 H         1 UNK         0.0819 
     93 H93        21.9534   -2.8016   -6.2171 H         1 UNK         0.0819 
     94 H94        22.5239   -1.0644   -4.5151 H         1 UNK         0.3041 
     95 H95        24.8909    1.1536   -3.0960 H         1 UNK         0.0784 
     96 H96        22.8096    2.5367   -3.0827 H         1 UNK         0.0793 
     97 H97        21.8511    1.1137   -2.6988 H         1 UNK         0.0793 
     98 H98        23.0444    1.7183   -1.5482 H         1 UNK         0.0793 
     99 H99        23.2623   -0.7857   -1.8649 H         1 UNK         0.3024 
    100 H100       23.9113   -2.7648   -1.2779 H         1 UNK         0.1171 
    101 H101       23.4492   -3.8023   -3.5195 H         1 UNK         0.0786 
    102 H102       24.1471   -4.9580   -2.3993 H         1 UNK         0.0786 
    103 H103       25.1444   -4.2458   -3.6664 H         1 UNK         0.0786 
    104 H104       26.3432   -4.1479   -1.4780 H         1 UNK         0.2977 
    105 H105       26.5954   -0.5340   -5.1298 H         1 UNK         0.3127 
    106 H106       28.9566    0.7579   -5.7213 H         1 UNK         0.0770 
    107 H107       26.6040    2.1863   -4.3831 H         1 UNK         0.0814 
    108 H108       28.3161    2.3462   -4.0326 H         1 UNK         0.0814 
    109 H109       27.4563    0.8783   -3.5850 H         1 UNK         0.0814 
    110 H110       25.7217    1.6271   -6.9136 H         1 UNK         0.2983 
    111 H111       26.4723    4.0673   -8.2241 H         1 UNK         0.0947 
    112 H112       24.1989    3.8441   -9.2493 H         1 UNK         0.0806 
    113 H113       24.1430    3.5490   -7.5185 H         1 UNK         0.0806 
    114 H114       24.0772    2.1954   -8.6457 H         1 UNK         0.0806 
    115 H115       26.9851    0.7541   -9.1591 H         1 UNK         0.3000 
    116 H116       27.1679    1.4469  -12.0690 H         1 UNK         0.0850 
    117 H117       26.8730   -0.9987  -12.4134 H         1 UNK         0.0810 
    118 H118       25.5194   -0.3220  -11.5201 H         1 UNK         0.0810 
    119 H119       26.7537   -1.2512  -10.6759 H         1 UNK         0.0810 
    120 H120       28.8405   -0.2629   -9.3864 H         1 UNK         0.3040 
    121 H121       31.1343   -1.0032  -10.9807 H         1 UNK         0.0766 
    122 H122       30.3296   -2.3749   -9.0692 H         1 UNK         0.0812 
    123 H123       30.5961   -1.0312   -7.9646 H         1 UNK         0.0812 
    124 H124       31.9654   -1.8216   -8.7406 H         1 UNK         0.0812 
    125 H125       33.3222   -0.3916  -10.5540 H         1 UNK         0.3205 
    126 H126       33.7772    2.3518   -9.4429 H         1 UNK         0.0754 
    127 H127       35.5313    2.5896  -11.2052 H         1 UNK         0.0769 
    128 H128       33.9319    2.4320  -11.9146 H         1 UNK         0.0769 
    129 H129       35.0398    1.0628  -11.9276 H         1 UNK         0.0769 
    130 H130       34.2813    1.4685   -7.4165 H         1 UNK         0.2981 
    131 H131       36.3246   -0.5720   -7.0934 H         1 UNK         0.0541 
    132 H132       38.2902    2.9529   -7.2290 H         1 UNK         0.3459 
    133 H133       36.6406    2.8259   -7.7835 H         1 UNK         0.3459 
    134 H134       34.9240    1.2298   -5.0563 H         1 UNK         0.0612 
    135 H135       36.1266    0.0497   -4.6254 H         1 UNK         0.0612 
    136 H136       32.6535    0.8094   -4.9402 H         1 UNK         0.0624 
    137 H137       32.3653    0.0398   -6.4826 H         1 UNK         0.0624 
@<TRIPOS>BOND
     1    1    2 1    
     2    1   72 1    
     3    1   73 1    
     4    1   74 1    
     5    2    3 2    
     6    2    4 am   BACKBONE|DICT|INTERRES
     7    4    5 1    
     8    4   75 1    
     9    5    6 1    
    10    5   35 1    
    11    5   76 1    
    12    6    7 1    
    13    6   77 1    
    14    6   78 1    
    15    7    8 1    
    16    8    9 1    
    17    8   79 1    
    18    8   80 1    
    19    9   10 ar   
    20    9   14 ar   
    21   10   11 ar   
    22   10   81 1    
    23   11   12 ar   
    24   11   71 1    
    25   12   13 ar   
    26   12   82 1    
    27   13   14 ar   
    28   13   15 1    
    29   14   83 1    
    30   15   16 1    
    31   15   84 1    
    32   15   85 1    
    33   16   17 1    
    34   17   18 1    
    35   17   86 1    
    36   17   87 1    
    37   18   19 1    
    38   18   37 1    
    39   18   88 1    
    40   19   20 am   BACKBONE|DICT|INTERRES
    41   19   89 1    
    42   20   21 2    
    43   20   22 1    
    44   22   23 1    
    45   22   24 1    
    46   22   90 1    
    47   23   91 1    
    48   23   92 1    
    49   23   93 1    
    50   24   25 am   BACKBONE|DICT|INTERRES
    51   24   94 1    
    52   25   26 2    
    53   25   27 1    
    54   27   28 1    
    55   27   29 1    
    56   27   95 1    
    57   28   96 1    
    58   28   97 1    
    59   28   98 1    
    60   29   30 am   BACKBONE|DICT|INTERRES
    61   29   99 1    
    62   30   31 2    
    63   30   32 1    
    64   32   33 1    
    65   32   34 1    
    66   32  100 1    
    67   33  101 1    
    68   33  102 1    
    69   33  103 1    
    70   34   35 am   BACKBONE|DICT|INTERRES
    71   34  104 1    
    72   35   36 2    
    73   37   38 2    
    74   37   39 am   BACKBONE|DICT|INTERRES
    75   39   40 1    
    76   39  105 1    
    77   40   41 1    
    78   40   42 1    
    79   40  106 1    
    80   41  107 1    
    81   41  108 1    
    82   41  109 1    
    83   42   43 2    
    84   42   44 am   BACKBONE|DICT|INTERRES
    85   44   45 1    
    86   44  110 1    
    87   45   46 1    
    88   45   47 1    
    89   45  111 1    
    90   46  112 1    
    91   46  113 1    
    92   46  114 1    
    93   47   48 2    
    94   47   49 am   BACKBONE|DICT|INTERRES
    95   49   50 1    
    96   49  115 1    
    97   50   51 1    
    98   50   52 1    
    99   50  116 1    
   100   51  117 1    
   101   51  118 1    
   102   51  119 1    
   103   52   53 2    
   104   52   54 am   BACKBONE|DICT|INTERRES
   105   54   55 1    
   106   54  120 1    
   107   55   56 1    
   108   55   57 1    
   109   55  121 1    
   110   56  122 1    
   111   56  123 1    
   112   56  124 1    
   113   57   58 2    
   114   57   59 am   BACKBONE|DICT|INTERRES
   115   59   60 1    
   116   59  125 1    
   117   60   61 1    
   118   60   62 1    
   119   60  126 1    
   120   61  127 1    
   121   61  128 1    
   122   61  129 1    
   123   62   63 2    
   124   62   64 am   BACKBONE|DICT|INTERRES
   125   64   65 1    
   126   64  130 1    
   127   65   66 1    
   128   65   69 1    
   129   65  131 1    
   130   66   67 am   BACKBONE|DICT|INTERRES
   131   66   68 2    
   132   67  132 1    
   133   67  133 1    
   134   69   70 1    
   135   69  134 1    
   136   69  135 1    
   137   70   71 1    
   138   71  136 1    
   139   71  137 1    
@<TRIPOS>SUBSTRUCTURE
     1 UNK         1 GROUP             0       ****    0 ROOT    
