@<TRIPOS>MOLECULE
3R137
137   139    1
SMALL
USER_CHARGES


@<TRIPOS>ATOM
      1 CA         23.5568   -4.2043   -8.5657 C.3       0 UNK        -0.2020 
      2 C          24.2981   -5.0009   -7.5027 C.2       0 UNK         0.4855 
      3 O          24.6147   -6.1704   -7.7223 O.2       0 UNK        -0.5197 
      4 N          24.5621   -4.3835   -6.3484 N.am      1 UNK        -0.4892 
      5 CA         25.1705   -4.9964   -5.1706 C.3       1 UNK         0.0835 
      6 C6         26.7089   -5.1901   -5.3059 C.3       12 UNK        -0.0855 
      7 S7         27.7434   -3.6960   -5.0753 S.3       12 UNK        -0.2931 
      8 C8         28.9035   -4.3128   -3.8135 C.3       12 UNK         0.0378 
      9 C9         29.9654   -3.2872   -3.4460 C.ar      12 UNK        -0.0802 
     10 C10        31.2368   -3.3346   -4.0283 C.ar      12 UNK        -0.0944 
     11 C11        32.2260   -2.4194   -3.6506 C.ar      12 UNK        -0.0787 
     12 C12        31.9336   -1.4498   -2.6877 C.ar      12 UNK        -0.0862 
     13 C13        30.6651   -1.3882   -2.1054 C.ar      12 UNK        -0.0733 
     14 C14        29.6885   -2.3134   -2.4841 C.ar      12 UNK        -0.0832 
     15 C15        30.3498   -0.3250   -1.0644 C.3       12 UNK         0.0240 
     16 S16        29.0218    0.7923   -1.6107 S.3       12 UNK        -0.2522 
     17 C17        29.7303    1.5155   -3.1310 C.3       12 UNK        -0.0967 
     18 CA         29.1921    0.8595   -4.4321 C.3       5 UNK         0.0660 
     19 N          27.7296    0.7713   -4.4558 N.am      5 UNK        -0.4015 
     20 C          26.9607    0.2462   -5.4187 C.2       4 UNK         0.4946 
     21 O          27.3916   -0.1412   -6.5095 O.2       4 UNK        -0.5353 
     22 CA         25.4466    0.1656   -5.1186 C.3       4 UNK         0.0277 
     23 CB         24.6923   -0.6767   -6.1613 C.3       4 UNK        -0.1981 
     24 N          25.1321   -0.3448   -3.7748 N.am      4 UNK        -0.4209 
     25 C          25.2265    0.3673   -2.6406 C.2       3 UNK         0.4942 
     26 O          25.6583    1.5209   -2.6175 O.2       3 UNK        -0.5208 
     27 CA         24.7707   -0.2701   -1.3147 C.3       3 UNK         0.0250 
     28 CB         23.5579    0.4869   -0.7461 C.3       3 UNK        -0.1990 
     29 N          24.4215   -1.6860   -1.4309 N.am      3 UNK        -0.4232 
     30 C          25.2711   -2.7069   -1.2622 C.2       2 UNK         0.4993 
     31 O          26.4622   -2.5715   -0.9864 O.2       2 UNK        -0.5286 
     32 CA         24.6993   -4.1288   -1.4270 C.3       2 UNK         0.0209 
     33 CB         23.1810   -4.2255   -1.1491 C.3       2 UNK        -0.1931 
     34 N          25.0213   -4.7086   -2.7371 N.am      2 UNK        -0.4546 
     35 C          24.7296   -4.1861   -3.9371 C.2       1 UNK         0.5154 
     36 O          24.1323   -3.1147   -4.0941 O.2       1 UNK        -0.5181 
     37 C          29.7483    1.5760   -5.6729 C.2       5 UNK         0.5014 
     38 O          30.5126    0.9825   -6.4307 O.2       5 UNK        -0.5248 
     39 N          29.3308    2.8309   -5.8784 N.am      6 UNK        -0.4434 
     40 CA         29.6851    3.6169   -7.0612 C.3       6 UNK         0.0363 
     41 CB         29.7115    5.1078   -6.6891 C.3       6 UNK        -0.1936 
     42 C          28.7199    3.3744   -8.2329 C.2       6 UNK         0.5081 
     43 O          29.1237    3.5350   -9.3837 O.2       6 UNK        -0.5248 
     44 N          27.4638    3.0230   -7.9242 N.am      7 UNK        -0.4718 
     45 CA         26.3752    2.9101   -8.8958 C.3       7 UNK         0.0273 
     46 CB         25.0247    2.9441   -8.1624 C.3       7 UNK        -0.1935 
     47 C          26.4718    1.6755   -9.8052 C.2       7 UNK         0.5018 
     48 O          26.1785    1.7977  -10.9956 O.2       7 UNK        -0.5186 
     49 N          26.8577    0.5220   -9.2427 N.am      8 UNK        -0.4240 
     50 CA         26.9545   -0.7467   -9.9668 C.3       8 UNK         0.0235 
     51 CB         26.0368   -1.7964   -9.3189 C.3       8 UNK        -0.2000 
     52 C          28.3976   -1.2518  -10.0111 C.2       8 UNK         0.4941 
     53 O          28.8885   -1.5608  -11.0977 O.2       8 UNK        -0.5273 
     54 N          29.0491   -1.3485   -8.8433 N.am      9 UNK        -0.4262 
     55 CA         30.3869   -1.9391   -8.7245 C.3       9 UNK         0.0264 
     56 CB         30.6051   -2.4216   -7.2847 C.3       9 UNK        -0.1955 
     57 C          31.5271   -1.0135   -9.1882 C.2       9 UNK         0.5031 
     58 O          32.6049   -1.5159   -9.5105 O.2       9 UNK        -0.5390 
     59 N          31.2691    0.3028   -9.2234 N.am      10 UNK        -0.4204 
     60 CA         32.1963    1.3893   -9.5696 C.3       10 UNK         0.0237 
     61 CB         32.6269    1.3024  -11.0496 C.3       10 UNK        -0.1985 
     62 C          33.3889    1.5002   -8.5957 C.2       10 UNK         0.4970 
     63 O          34.4926    1.8610   -9.0087 O.2       10 UNK        -0.4914 
     64 N          33.1374    1.1995   -7.3171 N.am      11 UNK        -0.4285 
     65 CA         34.1102    1.2365   -6.2159 C.3       11 UNK         0.1007 
     66 C          34.3110    2.6497   -5.5955 C.2       11 UNK         0.5703 
     67 N          33.5624    3.6708   -5.9967 N.am      11 UNK        -0.7361 
     68 O          35.1746    2.8269   -4.7397 O.2       11 UNK        -0.4986 
     69 C69        33.7561    0.1901   -5.1265 C.3       12 UNK        -0.0947 
     70 S70        33.7755   -1.5139   -5.7754 S.3       12 UNK        -0.2240 
     71 C71        33.6220   -2.4977   -4.2534 C.3       12 UNK         0.0194 
     72 H72        23.4131   -3.1652   -8.2701 H         1 UNK         0.0906 
     73 H73        24.1117   -4.2191   -9.5030 H         1 UNK         0.0906 
     74 H74        22.5762   -4.6438   -8.7459 H         1 UNK         0.0906 
     75 H75        24.2265   -3.4449   -6.1675 H         1 UNK         0.3140 
     76 H76        24.7163   -5.9837   -5.0566 H         1 UNK         0.1085 
     77 H77        27.0263   -5.9526   -4.5932 H         1 UNK         0.0836 
     78 H78        26.9473   -5.6118   -6.2833 H         1 UNK         0.0836 
     79 H79        29.3794   -5.2245   -4.1784 H         1 UNK         0.0731 
     80 H80        28.3435   -4.5936   -2.9198 H         1 UNK         0.0731 
     81 H81        31.4608   -4.0902   -4.7687 H         1 UNK         0.1312 
     82 H82        32.6972   -0.7437   -2.3917 H         1 UNK         0.1406 
     83 H83        28.7075   -2.2680   -2.0332 H         1 UNK         0.1631 
     84 H84        31.2351    0.2651   -0.8225 H         1 UNK         0.0717 
     85 H85        30.0416   -0.8129   -0.1388 H         1 UNK         0.0717 
     86 H86        29.5004    2.5823   -3.1079 H         1 UNK         0.0934 
     87 H87        30.8192    1.4452   -3.0915 H         1 UNK         0.0934 
     88 H88        29.5601   -0.1676   -4.4723 H         1 UNK         0.0739 
     89 H89        27.2561    1.0832   -3.6125 H         1 UNK         0.3093 
     90 H90        25.0615    1.1850   -5.1855 H         1 UNK         0.0818 
     91 H91        24.7663   -0.2347   -7.1543 H         1 UNK         0.0819 
     92 H92        25.1066   -1.6819   -6.2210 H         1 UNK         0.0819 
     93 H93        23.6318   -0.7584   -5.9225 H         1 UNK         0.0819 
     94 H94        24.7964   -1.3034   -3.7274 H         1 UNK         0.3041 
     95 H95        25.5975   -0.1606   -0.6092 H         1 UNK         0.0784 
     96 H96        23.7884    1.5431   -0.5986 H         1 UNK         0.0793 
     97 H97        22.6972    0.4314   -1.4138 H         1 UNK         0.0793 
     98 H98        23.2588    0.0859    0.2226 H         1 UNK         0.0793 
     99 H99        23.4725   -1.8996   -1.7038 H         1 UNK         0.3024 
    100 H100       25.2059   -4.7419   -0.6793 H         1 UNK         0.1171 
    101 H101       22.8565   -5.2659   -1.1276 H         1 UNK         0.0786 
    102 H102       22.9303   -3.7947   -0.1786 H         1 UNK         0.0786 
    103 H103       22.5822   -3.7144   -1.9037 H         1 UNK         0.0786 
    104 H104       25.5401   -5.5752   -2.7077 H         1 UNK         0.2977 
    105 H105       28.7065    3.2576   -5.2089 H         1 UNK         0.3127 
    106 H106       30.6864    3.3405   -7.3959 H         1 UNK         0.0770 
    107 H107       28.7363    5.4598   -6.3504 H         1 UNK         0.0814 
    108 H108       29.9976    5.7182   -7.5469 H         1 UNK         0.0814 
    109 H109       30.4343    5.3059   -5.8974 H         1 UNK         0.0814 
    110 H110       27.2259    2.8938   -6.9533 H         1 UNK         0.2983 
    111 H111       26.4191    3.7879   -9.5452 H         1 UNK         0.0947 
    112 H112       24.1958    2.8747   -8.8685 H         1 UNK         0.0806 
    113 H113       24.8974    3.8743   -7.6083 H         1 UNK         0.0806 
    114 H114       24.9223    2.1186   -7.4601 H         1 UNK         0.0806 
    115 H115       27.0875    0.4966   -8.2517 H         1 UNK         0.3000 
    116 H116       26.6270   -0.6248  -11.0015 H         1 UNK         0.0850 
    117 H117       26.0863   -2.7397   -9.8639 H         1 UNK         0.0810 
    118 H118       24.9974   -1.4695   -9.3289 H         1 UNK         0.0810 
    119 H119       26.3179   -2.0056   -8.2864 H         1 UNK         0.0810 
    120 H120       28.5828   -1.0736   -7.9835 H         1 UNK         0.3040 
    121 H121       30.4235   -2.8225   -9.3659 H         1 UNK         0.0766 
    122 H122       30.5543   -1.6069   -6.5627 H         1 UNK         0.0812 
    123 H123       31.5814   -2.8945   -7.1789 H         1 UNK         0.0812 
    124 H124       29.8612   -3.1652   -7.0037 H         1 UNK         0.0812 
    125 H125       30.3661    0.5921   -8.8732 H         1 UNK         0.3205 
    126 H126       31.6311    2.3143   -9.4538 H         1 UNK         0.0754 
    127 H127       33.1908    2.1878  -11.3456 H         1 UNK         0.0769 
    128 H128       31.7620    1.2352  -11.7096 H         1 UNK         0.0769 
    129 H129       33.2613    0.4358  -11.2378 H         1 UNK         0.0769 
    130 H130       32.1859    0.9501   -7.0506 H         1 UNK         0.2981 
    131 H131       35.0846    0.9607   -6.6234 H         1 UNK         0.0541 
    132 H132       32.8654    3.5405   -6.7093 H         1 UNK         0.3459 
    133 H133       33.7118    4.5806   -5.5902 H         1 UNK         0.3459 
    134 H134       32.7684    0.3967   -4.7114 H         1 UNK         0.0612 
    135 H135       34.4633    0.2397   -4.2966 H         1 UNK         0.0612 
    136 H136       33.8622   -3.5359   -4.4867 H         1 UNK         0.0624 
    137 H137       34.3702   -2.1697   -3.5302 H         1 UNK         0.0624 
@<TRIPOS>BOND
     1    1    2 1    
     2    1   72 1    
     3    1   73 1    
     4    1   74 1    
     5    2    3 2    
     6    2    4 am   BACKBONE|DICT|INTERRES
     7    4    5 1    
     8    4   75 1    
     9    5    6 1    
    10    5   35 1    
    11    5   76 1    
    12    6    7 1    
    13    6   77 1    
    14    6   78 1    
    15    7    8 1    
    16    8    9 1    
    17    8   79 1    
    18    8   80 1    
    19    9   10 ar   
    20    9   14 ar   
    21   10   11 ar   
    22   10   81 1    
    23   11   12 ar   
    24   11   71 1    
    25   12   13 ar   
    26   12   82 1    
    27   13   14 ar   
    28   13   15 1    
    29   14   83 1    
    30   15   16 1    
    31   15   84 1    
    32   15   85 1    
    33   16   17 1    
    34   17   18 1    
    35   17   86 1    
    36   17   87 1    
    37   18   19 1    
    38   18   37 1    
    39   18   88 1    
    40   19   20 am   BACKBONE|DICT|INTERRES
    41   19   89 1    
    42   20   21 2    
    43   20   22 1    
    44   22   23 1    
    45   22   24 1    
    46   22   90 1    
    47   23   91 1    
    48   23   92 1    
    49   23   93 1    
    50   24   25 am   BACKBONE|DICT|INTERRES
    51   24   94 1    
    52   25   26 2    
    53   25   27 1    
    54   27   28 1    
    55   27   29 1    
    56   27   95 1    
    57   28   96 1    
    58   28   97 1    
    59   28   98 1    
    60   29   30 am   BACKBONE|DICT|INTERRES
    61   29   99 1    
    62   30   31 2    
    63   30   32 1    
    64   32   33 1    
    65   32   34 1    
    66   32  100 1    
    67   33  101 1    
    68   33  102 1    
    69   33  103 1    
    70   34   35 am   BACKBONE|DICT|INTERRES
    71   34  104 1    
    72   35   36 2    
    73   37   38 2    
    74   37   39 am   BACKBONE|DICT|INTERRES
    75   39   40 1    
    76   39  105 1    
    77   40   41 1    
    78   40   42 1    
    79   40  106 1    
    80   41  107 1    
    81   41  108 1    
    82   41  109 1    
    83   42   43 2    
    84   42   44 am   BACKBONE|DICT|INTERRES
    85   44   45 1    
    86   44  110 1    
    87   45   46 1    
    88   45   47 1    
    89   45  111 1    
    90   46  112 1    
    91   46  113 1    
    92   46  114 1    
    93   47   48 2    
    94   47   49 am   BACKBONE|DICT|INTERRES
    95   49   50 1    
    96   49  115 1    
    97   50   51 1    
    98   50   52 1    
    99   50  116 1    
   100   51  117 1    
   101   51  118 1    
   102   51  119 1    
   103   52   53 2    
   104   52   54 am   BACKBONE|DICT|INTERRES
   105   54   55 1    
   106   54  120 1    
   107   55   56 1    
   108   55   57 1    
   109   55  121 1    
   110   56  122 1    
   111   56  123 1    
   112   56  124 1    
   113   57   58 2    
   114   57   59 am   BACKBONE|DICT|INTERRES
   115   59   60 1    
   116   59  125 1    
   117   60   61 1    
   118   60   62 1    
   119   60  126 1    
   120   61  127 1    
   121   61  128 1    
   122   61  129 1    
   123   62   63 2    
   124   62   64 am   BACKBONE|DICT|INTERRES
   125   64   65 1    
   126   64  130 1    
   127   65   66 1    
   128   65   69 1    
   129   65  131 1    
   130   66   67 am   BACKBONE|DICT|INTERRES
   131   66   68 2    
   132   67  132 1    
   133   67  133 1    
   134   69   70 1    
   135   69  134 1    
   136   69  135 1    
   137   70   71 1    
   138   71  136 1    
   139   71  137 1    
@<TRIPOS>SUBSTRUCTURE
     1 UNK         1 GROUP             0       ****    0 ROOT    
