@<TRIPOS>MOLECULE
3R137
137   139    1
SMALL
USER_CHARGES


@<TRIPOS>ATOM
      1 CA         25.7815   -4.2414    2.1097 C.3       0 UNK        -0.2020 
      2 C          26.6159   -3.4060    1.1511 C.2       0 UNK         0.4855 
      3 O          27.0667   -2.3197    1.5159 O.2       0 UNK        -0.5197 
      4 N          26.8158   -3.8926   -0.0799 N.am      1 UNK        -0.4892 
      5 CA         27.6138   -3.2624   -1.1406 C.3       1 UNK         0.0835 
      6 C6         28.0880   -4.3074   -2.1867 C.3       12 UNK        -0.0855 
      7 S7         29.2954   -5.5109   -1.5259 S.3       12 UNK        -0.2931 
      8 C8         30.8838   -4.6008   -1.5662 C.3       12 UNK         0.0378 
      9 C9         31.1050   -3.8376   -2.8663 C.ar      12 UNK        -0.0802 
     10 C10        31.4313   -4.5132   -4.0455 C.ar      12 UNK        -0.0944 
     11 C11        31.5633   -3.8117   -5.2481 C.ar      12 UNK        -0.0787 
     12 C12        31.3482   -2.4292   -5.2707 C.ar      12 UNK        -0.0862 
     13 C13        31.0360   -1.7396   -4.0959 C.ar      12 UNK        -0.0733 
     14 C14        30.9418   -2.4498   -2.8937 C.ar      12 UNK        -0.0832 
     15 C15        30.7869   -0.2351   -4.1293 C.3       12 UNK         0.0240 
     16 S16        29.2449    0.1943   -3.2599 S.3       12 UNK        -0.2522 
     17 C17        28.4821    1.4499   -4.3282 C.3       12 UNK        -0.0967 
     18 CA         27.8869    0.9086   -5.6543 C.3       5 UNK         0.0660 
     19 N          27.0992   -0.3296   -5.5188 N.am      5 UNK        -0.4015 
     20 C          26.5321   -0.9907   -6.5442 C.2       4 UNK         0.4946 
     21 O          26.5906   -0.6157   -7.7150 O.2       4 UNK        -0.5353 
     22 CA         25.7235   -2.2523   -6.2220 C.3       4 UNK         0.0277 
     23 CB         26.6540   -3.4580   -6.0075 C.3       4 UNK        -0.1981 
     24 N          24.8802   -2.0374   -5.0483 N.am      4 UNK        -0.4209 
     25 C          23.6856   -1.4290   -5.0768 C.2       3 UNK         0.4942 
     26 O          23.1123   -1.0964   -6.1145 O.2       3 UNK        -0.5208 
     27 CA         23.0163   -1.1195   -3.7239 C.3       3 UNK         0.0250 
     28 CB         22.0702   -2.2612   -3.3190 C.3       3 UNK        -0.1990 
     29 N          23.9664   -0.8699   -2.6359 N.am      3 UNK        -0.4232 
     30 C          24.8285    0.1556   -2.5929 C.2       2 UNK         0.4993 
     31 O          24.8976    1.0315   -3.4568 O.2       2 UNK        -0.5286 
     32 CA         25.8202    0.1772   -1.4148 C.3       2 UNK         0.0209 
     33 CB         25.1868    0.8657   -0.1956 C.3       2 UNK        -0.1931 
     34 N          26.3652   -1.1283   -1.0056 N.am      2 UNK        -0.4546 
     35 C          26.8862   -2.0692   -1.8071 C.2       1 UNK         0.5154 
     36 O          26.8111   -2.0132   -3.0343 O.2       1 UNK        -0.5181 
     37 C          27.1031    2.0384   -6.3480 C.2       5 UNK         0.5014 
     38 O          27.6850    2.7670   -7.1497 O.2       5 UNK        -0.5248 
     39 N          25.7954    2.1320   -6.0659 N.am      6 UNK        -0.4434 
     40 CA         24.8540    3.0590   -6.7000 C.3       6 UNK         0.0363 
     41 CB         23.4654    2.8638   -6.0702 C.3       6 UNK        -0.1936 
     42 C          24.7654    2.9389   -8.2359 C.2       6 UNK         0.5081 
     43 O          24.4236    3.9264   -8.8877 O.2       6 UNK        -0.5248 
     44 N          25.0720    1.7555   -8.7850 N.am      7 UNK        -0.4718 
     45 CA         25.1219    1.4941  -10.2235 C.3       7 UNK         0.0273 
     46 CB         24.3775    0.1818  -10.5226 C.3       7 UNK        -0.1935 
     47 C          26.5698    1.4176  -10.7324 C.2       7 UNK         0.5018 
     48 O          26.8709    1.9880  -11.7814 O.2       7 UNK        -0.5186 
     49 N          27.4319    0.6963  -10.0031 N.am      8 UNK        -0.4240 
     50 CA         28.8016    0.3750  -10.4084 C.3       8 UNK         0.0235 
     51 CB         29.2752   -0.8605   -9.6228 C.3       8 UNK        -0.2000 
     52 C          29.8070    1.5222  -10.2267 C.2       8 UNK         0.4941 
     53 O          30.8412    1.5086  -10.8941 O.2       8 UNK        -0.5273 
     54 N          29.5366    2.4530   -9.2995 N.am      9 UNK        -0.4262 
     55 CA         30.4039    3.5365   -8.8091 C.3       9 UNK         0.0264 
     56 CB         30.8618    4.4824   -9.9371 C.3       9 UNK        -0.1955 
     57 C          31.5931    3.0419   -7.9631 C.2       9 UNK         0.5031 
     58 O          31.8430    3.6043   -6.8962 O.2       9 UNK        -0.5390 
     59 N          32.2858    1.9966   -8.4252 N.am      10 UNK        -0.4204 
     60 CA         33.3782    1.3113   -7.7412 C.3       10 UNK         0.0237 
     61 CB         34.7020    2.0582   -7.9884 C.3       10 UNK        -0.1985 
     62 C          33.4517   -0.1322   -8.2536 C.2       10 UNK         0.4970 
     63 O          32.9380   -0.4233   -9.3356 O.2       10 UNK        -0.4914 
     64 N          34.0994   -1.0068   -7.4757 N.am      11 UNK        -0.4285 
     65 CA         34.3078   -2.4247   -7.8181 C.3       11 UNK         0.1007 
     66 C          35.4326   -2.6850   -8.8653 C.2       11 UNK         0.5703 
     67 N          36.2469   -1.6995   -9.2258 N.am      11 UNK        -0.7361 
     68 O          35.5622   -3.7971   -9.3708 O.2       11 UNK        -0.4986 
     69 C69        34.4846   -3.2835   -6.5337 C.3       12 UNK        -0.0947 
     70 S70        33.7040   -4.9313   -6.6413 S.3       12 UNK        -0.2240 
     71 C71        31.9232   -4.5481   -6.5296 C.3       12 UNK         0.0194 
     72 H72        24.9008   -3.6828    2.4254 H         1 UNK         0.0906 
     73 H73        25.4473   -5.1736    1.6546 H         1 UNK         0.0906 
     74 H74        26.3648   -4.4876    2.9967 H         1 UNK         0.0906 
     75 H75        26.4120   -4.7863   -0.3236 H         1 UNK         0.3140 
     76 H76        28.5063   -2.8322   -0.6815 H         1 UNK         0.1085 
     77 H77        28.5232   -3.8320   -3.0656 H         1 UNK         0.0836 
     78 H78        27.2311   -4.8639   -2.5703 H         1 UNK         0.0836 
     79 H79        31.7003   -5.3092   -1.4188 H         1 UNK         0.0731 
     80 H80        30.9187   -3.9204   -0.7139 H         1 UNK         0.0731 
     81 H81        31.5685   -5.5859   -4.0296 H         1 UNK         0.1312 
     82 H82        31.4316   -1.8909   -6.2049 H         1 UNK         0.1406 
     83 H83        30.6954   -1.9223   -1.9825 H         1 UNK         0.1631 
     84 H84        30.7451    0.1234   -5.1584 H         1 UNK         0.0717 
     85 H85        31.6219    0.2808   -3.6538 H         1 UNK         0.0717 
     86 H86        27.7048    1.9324   -3.7318 H         1 UNK         0.0934 
     87 H87        29.2239    2.2249   -4.5337 H         1 UNK         0.0934 
     88 H88        28.7202    0.6593   -6.3138 H         1 UNK         0.0739 
     89 H89        27.0333   -0.7268   -4.5864 H         1 UNK         0.3093 
     90 H90        25.0850   -2.4729   -7.0805 H         1 UNK         0.0818 
     91 H91        27.3870   -3.2801   -5.2207 H         1 UNK         0.0819 
     92 H92        26.0907   -4.3535   -5.7454 H         1 UNK         0.0819 
     93 H93        27.2115   -3.6800   -6.9184 H         1 UNK         0.0819 
     94 H94        25.3257   -2.2039   -4.1497 H         1 UNK         0.3041 
     95 H95        22.4220   -0.2128   -3.8566 H         1 UNK         0.0784 
     96 H96        21.3332   -2.4524   -4.1004 H         1 UNK         0.0793 
     97 H97        22.6112   -3.1925   -3.1464 H         1 UNK         0.0793 
     98 H98        21.5195   -2.0178   -2.4101 H         1 UNK         0.0793 
     99 H99        23.9976   -1.5481   -1.8885 H         1 UNK         0.3024 
    100 H100       26.6701    0.7817   -1.7359 H         1 UNK         0.1171 
    101 H101       25.9182    1.0174    0.5985 H         1 UNK         0.0786 
    102 H102       24.7915    1.8475   -0.4610 H         1 UNK         0.0786 
    103 H103       24.3627    0.2809    0.2149 H         1 UNK         0.0786 
    104 H104       26.4810   -1.2809   -0.0072 H         1 UNK         0.2977 
    105 H105       25.4201    1.5384   -5.3306 H         1 UNK         0.3127 
    106 H106       25.1953    4.0714   -6.4748 H         1 UNK         0.0770 
    107 H107       23.0904    1.8521   -6.2319 H         1 UNK         0.0814 
    108 H108       22.7390    3.5552   -6.4994 H         1 UNK         0.0814 
    109 H109       23.4878    3.0440   -4.9951 H         1 UNK         0.0814 
    110 H110       25.3779    1.0023   -8.1787 H         1 UNK         0.2983 
    111 H111       24.6216    2.2940  -10.7741 H         1 UNK         0.0947 
    112 H112       24.4030   -0.0479  -11.5887 H         1 UNK         0.0806 
    113 H113       23.3293    0.2482  -10.2306 H         1 UNK         0.0806 
    114 H114       24.8171   -0.6654   -9.9942 H         1 UNK         0.0806 
    115 H115       27.0953    0.2397   -9.1550 H         1 UNK         0.3000 
    116 H116       28.7913    0.1176  -11.4699 H         1 UNK         0.0850 
    117 H117       29.3192   -0.6651   -8.5506 H         1 UNK         0.0810 
    118 H118       28.6110   -1.7105   -9.7801 H         1 UNK         0.0810 
    119 H119       30.2735   -1.1668   -9.9390 H         1 UNK         0.0810 
    120 H120       28.6716    2.3618   -8.7723 H         1 UNK         0.3040 
    121 H121       29.7744    4.1246   -8.1395 H         1 UNK         0.0766 
    122 H122       30.0130    4.8537  -10.5113 H         1 UNK         0.0812 
    123 H123       31.5503    3.9979  -10.6295 H         1 UNK         0.0812 
    124 H124       31.3797    5.3495   -9.5255 H         1 UNK         0.0812 
    125 H125       32.0015    1.5777   -9.3103 H         1 UNK         0.3205 
    126 H126       33.1656    1.2832   -6.6702 H         1 UNK         0.0754 
    127 H127       35.5338    1.5696   -7.4798 H         1 UNK         0.0769 
    128 H128       34.6553    3.0816   -7.6153 H         1 UNK         0.0769 
    129 H129       34.9456    2.1020   -9.0508 H         1 UNK         0.0769 
    130 H130       34.5214   -0.6895   -6.6153 H         1 UNK         0.2981 
    131 H131       33.3910   -2.7506   -8.3112 H         1 UNK         0.0541 
    132 H132       36.1504   -0.7810   -8.8257 H         1 UNK         0.3459 
    133 H133       36.9657   -1.8803   -9.9088 H         1 UNK         0.3459 
    134 H134       35.5412   -3.4181   -6.2946 H         1 UNK         0.0612 
    135 H135       34.0685   -2.7778   -5.6623 H         1 UNK         0.0612 
    136 H136       31.3629   -5.4829   -6.5782 H         1 UNK         0.0624 
    137 H137       31.6176   -3.9710   -7.4032 H         1 UNK         0.0624 
@<TRIPOS>BOND
     1    1    2 1    
     2    1   72 1    
     3    1   73 1    
     4    1   74 1    
     5    2    3 2    
     6    2    4 am   BACKBONE|DICT|INTERRES
     7    4    5 1    
     8    4   75 1    
     9    5    6 1    
    10    5   35 1    
    11    5   76 1    
    12    6    7 1    
    13    6   77 1    
    14    6   78 1    
    15    7    8 1    
    16    8    9 1    
    17    8   79 1    
    18    8   80 1    
    19    9   10 ar   
    20    9   14 ar   
    21   10   11 ar   
    22   10   81 1    
    23   11   12 ar   
    24   11   71 1    
    25   12   13 ar   
    26   12   82 1    
    27   13   14 ar   
    28   13   15 1    
    29   14   83 1    
    30   15   16 1    
    31   15   84 1    
    32   15   85 1    
    33   16   17 1    
    34   17   18 1    
    35   17   86 1    
    36   17   87 1    
    37   18   19 1    
    38   18   37 1    
    39   18   88 1    
    40   19   20 am   BACKBONE|DICT|INTERRES
    41   19   89 1    
    42   20   21 2    
    43   20   22 1    
    44   22   23 1    
    45   22   24 1    
    46   22   90 1    
    47   23   91 1    
    48   23   92 1    
    49   23   93 1    
    50   24   25 am   BACKBONE|DICT|INTERRES
    51   24   94 1    
    52   25   26 2    
    53   25   27 1    
    54   27   28 1    
    55   27   29 1    
    56   27   95 1    
    57   28   96 1    
    58   28   97 1    
    59   28   98 1    
    60   29   30 am   BACKBONE|DICT|INTERRES
    61   29   99 1    
    62   30   31 2    
    63   30   32 1    
    64   32   33 1    
    65   32   34 1    
    66   32  100 1    
    67   33  101 1    
    68   33  102 1    
    69   33  103 1    
    70   34   35 am   BACKBONE|DICT|INTERRES
    71   34  104 1    
    72   35   36 2    
    73   37   38 2    
    74   37   39 am   BACKBONE|DICT|INTERRES
    75   39   40 1    
    76   39  105 1    
    77   40   41 1    
    78   40   42 1    
    79   40  106 1    
    80   41  107 1    
    81   41  108 1    
    82   41  109 1    
    83   42   43 2    
    84   42   44 am   BACKBONE|DICT|INTERRES
    85   44   45 1    
    86   44  110 1    
    87   45   46 1    
    88   45   47 1    
    89   45  111 1    
    90   46  112 1    
    91   46  113 1    
    92   46  114 1    
    93   47   48 2    
    94   47   49 am   BACKBONE|DICT|INTERRES
    95   49   50 1    
    96   49  115 1    
    97   50   51 1    
    98   50   52 1    
    99   50  116 1    
   100   51  117 1    
   101   51  118 1    
   102   51  119 1    
   103   52   53 2    
   104   52   54 am   BACKBONE|DICT|INTERRES
   105   54   55 1    
   106   54  120 1    
   107   55   56 1    
   108   55   57 1    
   109   55  121 1    
   110   56  122 1    
   111   56  123 1    
   112   56  124 1    
   113   57   58 2    
   114   57   59 am   BACKBONE|DICT|INTERRES
   115   59   60 1    
   116   59  125 1    
   117   60   61 1    
   118   60   62 1    
   119   60  126 1    
   120   61  127 1    
   121   61  128 1    
   122   61  129 1    
   123   62   63 2    
   124   62   64 am   BACKBONE|DICT|INTERRES
   125   64   65 1    
   126   64  130 1    
   127   65   66 1    
   128   65   69 1    
   129   65  131 1    
   130   66   67 am   BACKBONE|DICT|INTERRES
   131   66   68 2    
   132   67  132 1    
   133   67  133 1    
   134   69   70 1    
   135   69  134 1    
   136   69  135 1    
   137   70   71 1    
   138   71  136 1    
   139   71  137 1    
@<TRIPOS>SUBSTRUCTURE
     1 UNK         1 GROUP             0       ****    0 ROOT    
