@<TRIPOS>MOLECULE
3R137
137   139    1
SMALL
USER_CHARGES


@<TRIPOS>ATOM
      1 CA         27.3364    1.5515    1.2711 C.3       0 UNK        -0.2020 
      2 C          28.0840    0.3344    0.7481 C.2       0 UNK         0.4855 
      3 O          29.3137    0.3065    0.7912 O.2       0 UNK        -0.5197 
      4 N          27.3522   -0.6707    0.2586 N.am      1 UNK        -0.4892 
      5 CA         27.8771   -1.8920   -0.3447 C.3       1 UNK         0.0835 
      6 C6         28.4583   -2.8663    0.7140 C.3       12 UNK        -0.0855 
      7 S7         29.3925   -4.2696    0.0107 S.3       12 UNK        -0.2931 
      8 C8         31.0858   -3.6056   -0.0991 C.3       12 UNK         0.0378 
      9 C9         31.3542   -2.9847   -1.4623 C.ar      12 UNK        -0.0802 
     10 C10        31.6807   -3.8052   -2.5482 C.ar      12 UNK        -0.0944 
     11 C11        31.9454   -3.2480   -3.8021 C.ar      12 UNK        -0.0787 
     12 C12        31.8626   -1.8650   -3.9703 C.ar      12 UNK        -0.0862 
     13 C13        31.5274   -1.0345   -2.8987 C.ar      12 UNK        -0.0733 
     14 C14        31.2936   -1.5980   -1.6399 C.ar      12 UNK        -0.0832 
     15 C15        31.4128    0.4684   -3.1181 C.3       12 UNK         0.0240 
     16 S16        29.7463    1.1231   -2.7694 S.3       12 UNK        -0.2522 
     17 C17        28.6421    0.0251   -3.7221 C.3       12 UNK        -0.0967 
     18 CA         28.3549    0.5142   -5.1633 C.3       5 UNK         0.0660 
     19 N          27.7825   -0.5499   -5.9914 N.am      5 UNK        -0.4015 
     20 C          27.7508   -0.5351   -7.3312 C.2       4 UNK         0.4946 
     21 O          28.3186    0.3218   -8.0080 O.2       4 UNK        -0.5353 
     22 CA         26.9544   -1.6407   -8.0510 C.3       4 UNK         0.0277 
     23 CB         27.8901   -2.7657   -8.5129 C.3       4 UNK        -0.1981 
     24 N          25.8778   -2.2136   -7.2416 N.am      4 UNK        -0.4209 
     25 C          24.7662   -1.5578   -6.8788 C.2       3 UNK         0.4942 
     26 O          24.5026   -0.4136   -7.2432 O.2       3 UNK        -0.5208 
     27 CA         23.8305   -2.2697   -5.8823 C.3       3 UNK         0.0250 
     28 CB         22.7705   -3.0908   -6.6326 C.3       3 UNK        -0.1990 
     29 N          24.5321   -3.1308   -4.9182 N.am      3 UNK        -0.4232 
     30 C          25.5114   -2.7157   -4.1019 C.2       2 UNK         0.4993 
     31 O          25.9169   -1.5509   -4.0795 O.2       2 UNK        -0.5286 
     32 CA         26.2029   -3.7923   -3.2451 C.3       2 UNK         0.0209 
     33 CB         27.0181   -4.7465   -4.1374 C.3       2 UNK        -0.1931 
     34 N          27.1135   -3.2141   -2.2543 N.am      2 UNK        -0.4546 
     35 C          26.7423   -2.5079   -1.1801 C.2       1 UNK         0.5154 
     36 O          25.5677   -2.3291   -0.8418 O.2       1 UNK        -0.5181 
     37 C          27.4255    1.7415   -5.1888 C.2       5 UNK         0.5014 
     38 O          27.8921    2.8501   -5.4515 O.2       5 UNK        -0.5248 
     39 N          26.1188    1.5087   -4.9839 N.am      6 UNK        -0.4434 
     40 CA         25.0664    2.5291   -5.0510 C.3       6 UNK         0.0363 
     41 CB         23.7255    1.9156   -4.6176 C.3       6 UNK        -0.1936 
     42 C          24.9455    3.1893   -6.4378 C.2       6 UNK         0.5081 
     43 O          24.7383    4.4000   -6.5174 O.2       6 UNK        -0.5248 
     44 N          25.1176    2.3928   -7.5015 N.am      7 UNK        -0.4718 
     45 CA         25.1607    2.8434   -8.8964 C.3       7 UNK         0.0273 
     46 CB         24.9023    1.6359   -9.8130 C.3       7 UNK        -0.1935 
     47 C          26.4781    3.5397   -9.2950 C.2       7 UNK         0.5018 
     48 O          26.5510    4.0667  -10.4057 O.2       7 UNK        -0.5186 
     49 N          27.4918    3.5133   -8.4147 N.am      8 UNK        -0.4240 
     50 CA         28.8474    4.0514   -8.5936 C.3       8 UNK         0.0235 
     51 CB         28.8225    5.5863   -8.7581 C.3       8 UNK        -0.2000 
     52 C          29.6629    3.3414   -9.6950 C.2       8 UNK         0.4941 
     53 O          30.5851    3.9378  -10.2540 O.2       8 UNK        -0.5273 
     54 N          29.3373    2.0700   -9.9627 N.am      9 UNK        -0.4262 
     55 CA         30.0996    1.1695  -10.8306 C.3       9 UNK         0.0264 
     56 CB         29.1404    0.1398  -11.4502 C.3       9 UNK        -0.1955 
     57 C          31.2336    0.4617  -10.0661 C.2       9 UNK         0.5031 
     58 O          32.1723   -0.0237  -10.6990 O.2       9 UNK        -0.5390 
     59 N          31.1176    0.3981   -8.7291 N.am      10 UNK        -0.4204 
     60 CA         32.0799   -0.1537   -7.7653 C.3       10 UNK         0.0237 
     61 CB         33.3339    0.7408   -7.6815 C.3       10 UNK        -0.1985 
     62 C          32.4157   -1.6378   -8.0157 C.2       10 UNK         0.4970 
     63 O          33.5603   -2.0544   -7.8327 O.2       10 UNK        -0.4914 
     64 N          31.3964   -2.3952   -8.4381 N.am      11 UNK        -0.4285 
     65 CA         31.4490   -3.8173   -8.8204 C.3       11 UNK         0.1007 
     66 C          32.2329   -4.1026  -10.1386 C.2       11 UNK         0.5703 
     67 N          32.5889   -3.1015  -10.9373 N.am      11 UNK        -0.7361 
     68 O          32.4941   -5.2580  -10.4658 O.2       11 UNK        -0.4986 
     69 C69        31.8575   -4.7729   -7.6588 C.3       12 UNK        -0.0947 
     70 S70        30.9618   -4.4540   -6.0955 S.3       12 UNK        -0.2240 
     71 C71        32.3574   -4.1213   -4.9753 C.3       12 UNK         0.0194 
     72 H72        27.5762    1.7166    2.3212 H         1 UNK         0.0906 
     73 H73        27.6293    2.4389    0.7105 H         1 UNK         0.0906 
     74 H74        26.2562    1.4361    1.1836 H         1 UNK         0.0906 
     75 H75        26.3403   -0.6132    0.2233 H         1 UNK         0.3140 
     76 H76        28.6658   -1.5946   -1.0358 H         1 UNK         0.1085 
     77 H77        27.6564   -3.2665    1.3374 H         1 UNK         0.0836 
     78 H78        29.1155   -2.3323    1.4012 H         1 UNK         0.0836 
     79 H79        31.7901   -4.4221    0.0674 H         1 UNK         0.0731 
     80 H80        31.2689   -2.8859    0.7002 H         1 UNK         0.0731 
     81 H81        31.7378   -4.8768   -2.4132 H         1 UNK         0.1312 
     82 H82        32.0646   -1.4390   -4.9417 H         1 UNK         0.1406 
     83 H83        31.0428   -0.9553   -0.8060 H         1 UNK         0.1631 
     84 H84        31.6793    0.7332   -4.1425 H         1 UNK         0.0717 
     85 H85        32.1316    0.9773   -2.4746 H         1 UNK         0.0717 
     86 H86        29.0592   -0.9811   -3.7480 H         1 UNK         0.0934 
     87 H87        27.7188   -0.0669   -3.1491 H         1 UNK         0.0934 
     88 H88        29.3060    0.8062   -5.6141 H         1 UNK         0.0739 
     89 H89        27.2270   -1.2363   -5.4922 H         1 UNK         0.3093 
     90 H90        26.5018   -1.1933   -8.9377 H         1 UNK         0.0818 
     91 H91        28.6330   -2.3850   -9.2129 H         1 UNK         0.0819 
     92 H92        27.3409   -3.5511   -9.0327 H         1 UNK         0.0819 
     93 H93        28.4192   -3.2239   -7.6759 H         1 UNK         0.0819 
     94 H94        26.0088   -3.1559   -6.9044 H         1 UNK         0.3041 
     95 H95        23.3190   -1.4927   -5.3104 H         1 UNK         0.0784 
     96 H96        22.2231   -2.4664   -7.3405 H         1 UNK         0.0793 
     97 H97        23.2171   -3.9097   -7.1981 H         1 UNK         0.0793 
     98 H98        22.0377   -3.5157   -5.9463 H         1 UNK         0.0793 
     99 H99        24.2526   -4.1014   -4.8930 H         1 UNK         0.3024 
    100 H100       25.4311   -4.3568   -2.7170 H         1 UNK         0.1171 
    101 H101       27.5121   -5.5164   -3.5439 H         1 UNK         0.0786 
    102 H102       26.3833   -5.2624   -4.8588 H         1 UNK         0.0786 
    103 H103       27.7890   -4.2166   -4.6996 H         1 UNK         0.0786 
    104 H104       28.1006   -3.3272   -2.4353 H         1 UNK         0.2977 
    105 H105       25.8264    0.5606   -4.7758 H         1 UNK         0.3127 
    106 H106       25.3276    3.3134   -4.3373 H         1 UNK         0.0770 
    107 H107       23.4072    1.1198   -5.2913 H         1 UNK         0.0814 
    108 H108       22.9375    2.6699   -4.6114 H         1 UNK         0.0814 
    109 H109       23.7843    1.5004   -3.6114 H         1 UNK         0.0814 
    110 H110       25.1747    1.3891   -7.3470 H         1 UNK         0.2983 
    111 H111       24.3563    3.5664   -9.0478 H         1 UNK         0.0947 
    112 H112       24.8488    1.9406  -10.8591 H         1 UNK         0.0806 
    113 H113       23.9587    1.1463   -9.5708 H         1 UNK         0.0806 
    114 H114       25.6967    0.8942   -9.7307 H         1 UNK         0.0806 
    115 H115       27.3265    3.0673   -7.5194 H         1 UNK         0.3000 
    116 H116       29.3709    3.8362   -7.6609 H         1 UNK         0.0850 
    117 H117       29.8310    6.0002   -8.7224 H         1 UNK         0.0810 
    118 H118       28.2514    6.0608   -7.9600 H         1 UNK         0.0810 
    119 H119       28.3839    5.8860   -9.7101 H         1 UNK         0.0810 
    120 H120       28.6088    1.6367   -9.4023 H         1 UNK         0.3040 
    121 H121       30.5547    1.7438  -11.6404 H         1 UNK         0.0766 
    122 H122       28.3792    0.6281  -12.0589 H         1 UNK         0.0812 
    123 H123       28.6294   -0.4494  -10.6890 H         1 UNK         0.0812 
    124 H124       29.6766   -0.5550  -12.0982 H         1 UNK         0.0812 
    125 H125       30.2403    0.7263   -8.3363 H         1 UNK         0.3205 
    126 H126       31.5833   -0.1147   -6.7955 H         1 UNK         0.0754 
    127 H127       33.9978    0.4132   -6.8805 H         1 UNK         0.0769 
    128 H128       33.0680    1.7778   -7.4761 H         1 UNK         0.0769 
    129 H129       33.9066    0.7192   -8.6095 H         1 UNK         0.0769 
    130 H130       30.5067   -1.9429   -8.5738 H         1 UNK         0.2981 
    131 H131       30.4205   -4.0723   -9.0737 H         1 UNK         0.0541 
    132 H132       32.3991   -2.1370  -10.6935 H         1 UNK         0.3459 
    133 H133       33.0833   -3.3109  -11.7897 H         1 UNK         0.3459 
    134 H134       31.6554   -5.8078   -7.9398 H         1 UNK         0.0612 
    135 H135       32.9340   -4.7203   -7.4905 H         1 UNK         0.0612 
    136 H136       32.7701   -5.0692   -4.6272 H         1 UNK         0.0624 
    137 H137       33.1598   -3.6176   -5.5162 H         1 UNK         0.0624 
@<TRIPOS>BOND
     1    1    2 1    
     2    1   72 1    
     3    1   73 1    
     4    1   74 1    
     5    2    3 2    
     6    2    4 am   BACKBONE|DICT|INTERRES
     7    4    5 1    
     8    4   75 1    
     9    5    6 1    
    10    5   35 1    
    11    5   76 1    
    12    6    7 1    
    13    6   77 1    
    14    6   78 1    
    15    7    8 1    
    16    8    9 1    
    17    8   79 1    
    18    8   80 1    
    19    9   10 ar   
    20    9   14 ar   
    21   10   11 ar   
    22   10   81 1    
    23   11   12 ar   
    24   11   71 1    
    25   12   13 ar   
    26   12   82 1    
    27   13   14 ar   
    28   13   15 1    
    29   14   83 1    
    30   15   16 1    
    31   15   84 1    
    32   15   85 1    
    33   16   17 1    
    34   17   18 1    
    35   17   86 1    
    36   17   87 1    
    37   18   19 1    
    38   18   37 1    
    39   18   88 1    
    40   19   20 am   BACKBONE|DICT|INTERRES
    41   19   89 1    
    42   20   21 2    
    43   20   22 1    
    44   22   23 1    
    45   22   24 1    
    46   22   90 1    
    47   23   91 1    
    48   23   92 1    
    49   23   93 1    
    50   24   25 am   BACKBONE|DICT|INTERRES
    51   24   94 1    
    52   25   26 2    
    53   25   27 1    
    54   27   28 1    
    55   27   29 1    
    56   27   95 1    
    57   28   96 1    
    58   28   97 1    
    59   28   98 1    
    60   29   30 am   BACKBONE|DICT|INTERRES
    61   29   99 1    
    62   30   31 2    
    63   30   32 1    
    64   32   33 1    
    65   32   34 1    
    66   32  100 1    
    67   33  101 1    
    68   33  102 1    
    69   33  103 1    
    70   34   35 am   BACKBONE|DICT|INTERRES
    71   34  104 1    
    72   35   36 2    
    73   37   38 2    
    74   37   39 am   BACKBONE|DICT|INTERRES
    75   39   40 1    
    76   39  105 1    
    77   40   41 1    
    78   40   42 1    
    79   40  106 1    
    80   41  107 1    
    81   41  108 1    
    82   41  109 1    
    83   42   43 2    
    84   42   44 am   BACKBONE|DICT|INTERRES
    85   44   45 1    
    86   44  110 1    
    87   45   46 1    
    88   45   47 1    
    89   45  111 1    
    90   46  112 1    
    91   46  113 1    
    92   46  114 1    
    93   47   48 2    
    94   47   49 am   BACKBONE|DICT|INTERRES
    95   49   50 1    
    96   49  115 1    
    97   50   51 1    
    98   50   52 1    
    99   50  116 1    
   100   51  117 1    
   101   51  118 1    
   102   51  119 1    
   103   52   53 2    
   104   52   54 am   BACKBONE|DICT|INTERRES
   105   54   55 1    
   106   54  120 1    
   107   55   56 1    
   108   55   57 1    
   109   55  121 1    
   110   56  122 1    
   111   56  123 1    
   112   56  124 1    
   113   57   58 2    
   114   57   59 am   BACKBONE|DICT|INTERRES
   115   59   60 1    
   116   59  125 1    
   117   60   61 1    
   118   60   62 1    
   119   60  126 1    
   120   61  127 1    
   121   61  128 1    
   122   61  129 1    
   123   62   63 2    
   124   62   64 am   BACKBONE|DICT|INTERRES
   125   64   65 1    
   126   64  130 1    
   127   65   66 1    
   128   65   69 1    
   129   65  131 1    
   130   66   67 am   BACKBONE|DICT|INTERRES
   131   66   68 2    
   132   67  132 1    
   133   67  133 1    
   134   69   70 1    
   135   69  134 1    
   136   69  135 1    
   137   70   71 1    
   138   71  136 1    
   139   71  137 1    
@<TRIPOS>SUBSTRUCTURE
     1 UNK         1 GROUP             0       ****    0 ROOT    
