@<TRIPOS>MOLECULE
3R137
137   139    1
SMALL
USER_CHARGES


@<TRIPOS>ATOM
      1 CA         28.0155   -6.4576    0.1702 C.3       0 UNK        -0.2020 
      2 C          27.9328   -5.2627   -0.7666 C.2       0 UNK         0.4855 
      3 O          27.6654   -4.1476   -0.3193 O.2       0 UNK        -0.5197 
      4 N          28.1485   -5.4813   -2.0695 N.am      1 UNK        -0.4892 
      5 CA         28.1411   -4.4607   -3.1271 C.3       1 UNK         0.0835 
      6 C6         29.0441   -4.8868   -4.3170 C.3       12 UNK        -0.0855 
      7 S7         30.8393   -5.0681   -3.9898 S.3       12 UNK        -0.2931 
      8 C8         31.2348   -4.0324   -2.5331 C.3       12 UNK         0.0378 
      9 C9         30.9979   -2.5382   -2.7410 C.ar      12 UNK        -0.0802 
     10 C10        31.5233   -1.8710   -3.8524 C.ar      12 UNK        -0.0944 
     11 C11        31.3120   -0.4987   -4.0249 C.ar      12 UNK        -0.0787 
     12 C12        30.5743    0.2093   -3.0727 C.ar      12 UNK        -0.0862 
     13 C13        30.0306   -0.4462   -1.9645 C.ar      12 UNK        -0.0733 
     14 C14        30.2634   -1.8139   -1.7959 C.ar      12 UNK        -0.0832 
     15 C15        29.1838    0.3056   -0.9469 C.3       12 UNK         0.0240 
     16 S16        27.4160   -0.0900   -1.1509 S.3       12 UNK        -0.2522 
     17 C17        26.7323    1.4389   -1.8820 C.3       12 UNK        -0.0967 
     18 CA         27.2435    1.7436   -3.3108 C.3       5 UNK         0.0660 
     19 N          27.0600    0.6201   -4.2347 N.am      5 UNK        -0.4015 
     20 C          27.6745    0.5317   -5.4238 C.2       4 UNK         0.4946 
     21 O          28.4901    1.3585   -5.8256 O.2       4 UNK        -0.5353 
     22 CA         27.2936   -0.6257   -6.3608 C.3       4 UNK         0.0277 
     23 CB         28.3695   -1.7139   -6.2957 C.3       4 UNK        -0.1981 
     24 N          25.9715   -1.1998   -6.0987 N.am      4 UNK        -0.4209 
     25 C          24.8206   -0.5128   -6.1854 C.2       3 UNK         0.4942 
     26 O          24.7630    0.6723   -6.5177 O.2       3 UNK        -0.5208 
     27 CA         23.5256   -1.2346   -5.7758 C.3       3 UNK         0.0250 
     28 CB         22.8287   -1.8181   -7.0145 C.3       3 UNK        -0.1990 
     29 N          23.7167   -2.2927   -4.7781 N.am      3 UNK        -0.4232 
     30 C          24.2788   -2.1332   -3.5708 C.2       2 UNK         0.4993 
     31 O          24.7062   -1.0551   -3.1554 O.2       2 UNK        -0.5286 
     32 CA         24.4378   -3.3876   -2.6933 C.3       2 UNK         0.0209 
     33 CB         23.5779   -4.5914   -3.1428 C.3       2 UNK        -0.1931 
     34 N          25.8457   -3.7815   -2.5739 N.am      2 UNK        -0.4546 
     35 C          26.7052   -4.0794   -3.5602 C.2       1 UNK         0.5154 
     36 O          26.4031   -4.0551   -4.7559 O.2       1 UNK        -0.5181 
     37 C          26.6520    3.0656   -3.8506 C.2       5 UNK         0.5014 
     38 O          27.0677    4.1299   -3.3895 O.2       5 UNK        -0.5248 
     39 N          25.7241    2.9880   -4.8167 N.am      6 UNK        -0.4434 
     40 CA         25.1829    4.1343   -5.5452 C.3       6 UNK         0.0363 
     41 CB         23.6479    4.0409   -5.5712 C.3       6 UNK        -0.1936 
     42 C          25.7418    4.1926   -6.9757 C.2       6 UNK         0.5081 
     43 O          26.1385    5.2673   -7.4259 O.2       6 UNK        -0.5248 
     44 N          25.7415    3.0495   -7.6755 N.am      7 UNK        -0.4718 
     45 CA         26.0386    2.9583   -9.1076 C.3       7 UNK         0.0273 
     46 CB         25.2945    1.7382   -9.6792 C.3       7 UNK        -0.1935 
     47 C          27.5343    2.8708   -9.4572 C.2       7 UNK         0.5018 
     48 O          27.8697    3.0494  -10.6281 O.2       7 UNK        -0.5186 
     49 N          28.3930    2.5394   -8.4788 N.am      8 UNK        -0.4240 
     50 CA         29.8230    2.2105   -8.6228 C.3       8 UNK         0.0235 
     51 CB         30.6348    3.4046   -9.1670 C.3       8 UNK        -0.2000 
     52 C          30.0868    0.9129   -9.4162 C.2       8 UNK         0.4941 
     53 O          31.2256    0.6703   -9.8222 O.2       8 UNK        -0.5273 
     54 N          29.0515    0.0790   -9.5952 N.am      9 UNK        -0.4262 
     55 CA         29.0148   -1.1611  -10.3817 C.3       9 UNK         0.0264 
     56 CB         27.5391   -1.5290  -10.6306 C.3       9 UNK        -0.1955 
     57 C          29.8182   -2.3324   -9.7722 C.2       9 UNK         0.5031 
     58 O          29.3085   -3.4498   -9.6757 O.2       9 UNK        -0.5390 
     59 N          31.0623   -2.0465   -9.3852 N.am      10 UNK        -0.4204 
     60 CA         32.0676   -2.9468   -8.8197 C.3       10 UNK         0.0237 
     61 CB         31.6063   -3.5535   -7.4776 C.3       10 UNK        -0.1985 
     62 C          33.3832   -2.1792   -8.6337 C.2       10 UNK         0.4970 
     63 O          34.4488   -2.7109   -8.9452 O.2       10 UNK        -0.4914 
     64 N          33.2745   -0.9403   -8.1381 N.am      11 UNK        -0.4285 
     65 CA         34.3879   -0.0103   -7.9115 C.3       11 UNK         0.1007 
     66 C          34.9056    0.6626   -9.2125 C.2       11 UNK         0.5703 
     67 N          34.0662    0.8886  -10.2164 N.am      11 UNK        -0.7361 
     68 O          36.0893    0.9764   -9.3129 O.2       11 UNK        -0.4986 
     69 C69        34.0168    1.0583   -6.8502 C.3       12 UNK        -0.0947 
     70 S70        33.6697    0.3266   -5.2153 S.3       12 UNK        -0.2240 
     71 C71        31.8546    0.2138   -5.2537 C.3       12 UNK         0.0194 
     72 H72        28.2641   -7.3764   -0.3607 H         1 UNK         0.0906 
     73 H73        28.7796   -6.2868    0.9280 H         1 UNK         0.0906 
     74 H74        27.0613   -6.6047    0.6754 H         1 UNK         0.0906 
     75 H75        28.3426   -6.4219   -2.3838 H         1 UNK         0.3140 
     76 H76        28.5322   -3.5335   -2.7196 H         1 UNK         0.1085 
     77 H77        28.9654   -4.1785   -5.1390 H         1 UNK         0.0836 
     78 H78        28.6864   -5.8322   -4.7285 H         1 UNK         0.0836 
     79 H79        32.2897   -4.1746   -2.2953 H         1 UNK         0.0731 
     80 H80        30.6862   -4.4026   -1.6670 H         1 UNK         0.0731 
     81 H81        32.1017   -2.4203   -4.5820 H         1 UNK         0.1312 
     82 H82        30.4178    1.2699   -3.2055 H         1 UNK         0.1406 
     83 H83        29.8472   -2.3178   -0.9329 H         1 UNK         0.1631 
     84 H84        29.3461    1.3820   -1.0188 H         1 UNK         0.0717 
     85 H85        29.4925    0.0196    0.0596 H         1 UNK         0.0717 
     86 H86        25.6447    1.3420   -1.8858 H         1 UNK         0.0934 
     87 H87        26.9577    2.2685   -1.2087 H         1 UNK         0.0934 
     88 H88        28.3142    1.9258   -3.2370 H         1 UNK         0.0739 
     89 H89        26.3869   -0.0855   -3.9522 H         1 UNK         0.3093 
     90 H90        27.2685   -0.2301   -7.3765 H         1 UNK         0.0818 
     91 H91        28.1003   -2.5915   -6.8842 H         1 UNK         0.0819 
     92 H92        29.3170   -1.3403   -6.6838 H         1 UNK         0.0819 
     93 H93        28.5453   -2.0226   -5.2655 H         1 UNK         0.0819 
     94 H94        25.9420   -2.1648   -5.7870 H         1 UNK         0.3041 
     95 H95        22.8677   -0.4847   -5.3320 H         1 UNK         0.0784 
     96 H96        22.6558   -1.0452   -7.7652 H         1 UNK         0.0793 
     97 H97        23.4269   -2.6003   -7.4839 H         1 UNK         0.0793 
     98 H98        21.8571   -2.2429   -6.7612 H         1 UNK         0.0793 
     99 H99        23.4297   -3.2234   -5.0449 H         1 UNK         0.3024 
    100 H100       24.1070   -3.0979   -1.6944 H         1 UNK         0.1171 
    101 H101       23.6505   -5.4079   -2.4242 H         1 UNK         0.0786 
    102 H102       22.5230   -4.3210   -3.2087 H         1 UNK         0.0786 
    103 H103       23.8839   -4.9852   -4.1127 H         1 UNK         0.0786 
    104 H104       26.2267   -3.7862   -1.6315 H         1 UNK         0.2977 
    105 H105       25.4460    2.0732   -5.1539 H         1 UNK         0.3127 
    106 H106       25.4519    5.0683   -5.0472 H         1 UNK         0.0770 
    107 H107       23.3028    3.1237   -6.0506 H         1 UNK         0.0814 
    108 H108       23.2153    4.8790   -6.1193 H         1 UNK         0.0814 
    109 H109       23.2346    4.0658   -4.5629 H         1 UNK         0.0814 
    110 H110       25.3722    2.2056   -7.2403 H         1 UNK         0.2983 
    111 H111       25.6488    3.8508   -9.6027 H         1 UNK         0.0947 
    112 H112       24.2193    1.8205   -9.5188 H         1 UNK         0.0806 
    113 H113       25.6277    0.8069   -9.2205 H         1 UNK         0.0806 
    114 H114       25.4527    1.6479  -10.7550 H         1 UNK         0.0806 
    115 H115       28.0296    2.4145   -7.5392 H         1 UNK         0.3000 
    116 H116       30.1919    2.0146   -7.6160 H         1 UNK         0.0850 
    117 H117       30.4400    4.3106   -8.5934 H         1 UNK         0.0810 
    118 H118       30.4059    3.6117  -10.2125 H         1 UNK         0.0810 
    119 H119       31.7061    3.2084   -9.1063 H         1 UNK         0.0810 
    120 H120       28.1695    0.3719   -9.2070 H         1 UNK         0.3040 
    121 H121       29.4696   -0.9476  -11.3513 H         1 UNK         0.0766 
    122 H122       27.4559   -2.4036  -11.2773 H         1 UNK         0.0812 
    123 H123       27.0035   -0.7173  -11.1234 H         1 UNK         0.0812 
    124 H124       27.0193   -1.7613   -9.7000 H         1 UNK         0.0812 
    125 H125       31.3720   -1.0947   -9.5799 H         1 UNK         0.3205 
    126 H126       32.2446   -3.7532   -9.5340 H         1 UNK         0.0754 
    127 H127       32.4060   -4.1296   -7.0100 H         1 UNK         0.0769 
    128 H128       30.7639   -4.2323   -7.6085 H         1 UNK         0.0769 
    129 H129       31.3020   -2.7839   -6.7697 H         1 UNK         0.0769 
    130 H130       32.3604   -0.5818   -7.9169 H         1 UNK         0.2981 
    131 H131       35.2239   -0.5893   -7.5135 H         1 UNK         0.0541 
    132 H132       34.4129    1.3189  -11.0583 H         1 UNK         0.3459 
    133 H133       33.0718    0.7076  -10.1161 H         1 UNK         0.3459 
    134 H134       34.8412    1.7612   -6.7158 H         1 UNK         0.0612 
    135 H135       33.1619    1.6532   -7.1779 H         1 UNK         0.0612 
    136 H136       31.5313   -0.3261   -6.1423 H         1 UNK         0.0624 
    137 H137       31.4358    1.2183   -5.3357 H         1 UNK         0.0624 
@<TRIPOS>BOND
     1    1    2 1    
     2    1   72 1    
     3    1   73 1    
     4    1   74 1    
     5    2    3 2    
     6    2    4 am   BACKBONE|DICT|INTERRES
     7    4    5 1    
     8    4   75 1    
     9    5    6 1    
    10    5   35 1    
    11    5   76 1    
    12    6    7 1    
    13    6   77 1    
    14    6   78 1    
    15    7    8 1    
    16    8    9 1    
    17    8   79 1    
    18    8   80 1    
    19    9   10 ar   
    20    9   14 ar   
    21   10   11 ar   
    22   10   81 1    
    23   11   12 ar   
    24   11   71 1    
    25   12   13 ar   
    26   12   82 1    
    27   13   14 ar   
    28   13   15 1    
    29   14   83 1    
    30   15   16 1    
    31   15   84 1    
    32   15   85 1    
    33   16   17 1    
    34   17   18 1    
    35   17   86 1    
    36   17   87 1    
    37   18   19 1    
    38   18   37 1    
    39   18   88 1    
    40   19   20 am   BACKBONE|DICT|INTERRES
    41   19   89 1    
    42   20   21 2    
    43   20   22 1    
    44   22   23 1    
    45   22   24 1    
    46   22   90 1    
    47   23   91 1    
    48   23   92 1    
    49   23   93 1    
    50   24   25 am   BACKBONE|DICT|INTERRES
    51   24   94 1    
    52   25   26 2    
    53   25   27 1    
    54   27   28 1    
    55   27   29 1    
    56   27   95 1    
    57   28   96 1    
    58   28   97 1    
    59   28   98 1    
    60   29   30 am   BACKBONE|DICT|INTERRES
    61   29   99 1    
    62   30   31 2    
    63   30   32 1    
    64   32   33 1    
    65   32   34 1    
    66   32  100 1    
    67   33  101 1    
    68   33  102 1    
    69   33  103 1    
    70   34   35 am   BACKBONE|DICT|INTERRES
    71   34  104 1    
    72   35   36 2    
    73   37   38 2    
    74   37   39 am   BACKBONE|DICT|INTERRES
    75   39   40 1    
    76   39  105 1    
    77   40   41 1    
    78   40   42 1    
    79   40  106 1    
    80   41  107 1    
    81   41  108 1    
    82   41  109 1    
    83   42   43 2    
    84   42   44 am   BACKBONE|DICT|INTERRES
    85   44   45 1    
    86   44  110 1    
    87   45   46 1    
    88   45   47 1    
    89   45  111 1    
    90   46  112 1    
    91   46  113 1    
    92   46  114 1    
    93   47   48 2    
    94   47   49 am   BACKBONE|DICT|INTERRES
    95   49   50 1    
    96   49  115 1    
    97   50   51 1    
    98   50   52 1    
    99   50  116 1    
   100   51  117 1    
   101   51  118 1    
   102   51  119 1    
   103   52   53 2    
   104   52   54 am   BACKBONE|DICT|INTERRES
   105   54   55 1    
   106   54  120 1    
   107   55   56 1    
   108   55   57 1    
   109   55  121 1    
   110   56  122 1    
   111   56  123 1    
   112   56  124 1    
   113   57   58 2    
   114   57   59 am   BACKBONE|DICT|INTERRES
   115   59   60 1    
   116   59  125 1    
   117   60   61 1    
   118   60   62 1    
   119   60  126 1    
   120   61  127 1    
   121   61  128 1    
   122   61  129 1    
   123   62   63 2    
   124   62   64 am   BACKBONE|DICT|INTERRES
   125   64   65 1    
   126   64  130 1    
   127   65   66 1    
   128   65   69 1    
   129   65  131 1    
   130   66   67 am   BACKBONE|DICT|INTERRES
   131   66   68 2    
   132   67  132 1    
   133   67  133 1    
   134   69   70 1    
   135   69  134 1    
   136   69  135 1    
   137   70   71 1    
   138   71  136 1    
   139   71  137 1    
@<TRIPOS>SUBSTRUCTURE
     1 UNK         1 GROUP             0       ****    0 ROOT    
