@<TRIPOS>MOLECULE
3R137
137   139    1
SMALL
USER_CHARGES


@<TRIPOS>ATOM
      1 CA         27.1897   -9.6106   -1.5080 C.3       0 UNK        -0.2020 
      2 C          26.8159   -8.1361   -1.4735 C.2       0 UNK         0.4855 
      3 O          25.6592   -7.7912   -1.7186 O.2       0 UNK        -0.5197 
      4 N          27.7823   -7.2647   -1.1619 N.am      1 UNK        -0.4892 
      5 CA         27.6299   -5.8066   -1.1614 C.3       1 UNK         0.0835 
      6 C6         28.7195   -5.1172   -0.2986 C.3       12 UNK        -0.0855 
      7 S7         30.4312   -5.5427   -0.7772 S.3       12 UNK        -0.2931 
      8 C8         31.3587   -4.1370   -0.0877 C.3       12 UNK         0.0378 
      9 C9         31.1941   -2.8608   -0.9045 C.ar      12 UNK        -0.0802 
     10 C10        31.7470   -2.7722   -2.1851 C.ar      12 UNK        -0.0944 
     11 C11        31.6798   -1.5793   -2.9121 C.ar      12 UNK        -0.0787 
     12 C12        31.0531   -0.4650   -2.3423 C.ar      12 UNK        -0.0862 
     13 C13        30.4804   -0.5435   -1.0684 C.ar      12 UNK        -0.0733 
     14 C14        30.5483   -1.7474   -0.3583 C.ar      12 UNK        -0.0832 
     15 C15        29.8378    0.6810   -0.4286 C.3       12 UNK         0.0240 
     16 S16        28.2759    1.1572   -1.2375 S.3       12 UNK        -0.2522 
     17 C17        28.8037    2.5058   -2.3542 C.3       12 UNK        -0.0967 
     18 CA         28.3933    2.2539   -3.8270 C.3       5 UNK         0.0660 
     19 N          26.9394    2.1052   -3.9712 N.am      5 UNK        -0.4015 
     20 C          26.3429    1.4434   -4.9671 C.2       4 UNK         0.4946 
     21 O          26.9582    0.8981   -5.8877 O.2       4 UNK        -0.5353 
     22 CA         24.8154    1.3784   -4.9627 C.3       4 UNK         0.0277 
     23 CB         24.2067    2.4533   -5.8796 C.3       4 UNK        -0.1981 
     24 N          24.4966    0.0487   -5.4532 N.am      4 UNK        -0.4209 
     25 C          23.4042   -0.6712   -5.1896 C.2       3 UNK         0.4942 
     26 O          22.3961   -0.2304   -4.6363 O.2       3 UNK        -0.5208 
     27 CA         23.4888   -2.1606   -5.5702 C.3       3 UNK         0.0250 
     28 CB         23.1348   -2.3633   -7.0530 C.3       3 UNK        -0.1990 
     29 N          24.8178   -2.7285   -5.2987 N.am      3 UNK        -0.4232 
     30 C          25.3467   -2.8598   -4.0729 C.2       2 UNK         0.4993 
     31 O          24.7435   -2.5918   -3.0297 O.2       2 UNK        -0.5286 
     32 CA         26.8005   -3.3383   -3.9934 C.3       2 UNK         0.0209 
     33 CB         27.7703   -2.1426   -4.0134 C.3       2 UNK        -0.1931 
     34 N          26.9762   -4.0583   -2.7365 N.am      2 UNK        -0.4546 
     35 C          27.5856   -5.2388   -2.5970 C.2       1 UNK         0.5154 
     36 O          28.1066   -5.8563   -3.5312 O.2       1 UNK        -0.5181 
     37 C          28.9114    3.3515   -4.7846 C.2       5 UNK         0.5014 
     38 O          29.4143    4.3837   -4.3363 O.2       5 UNK        -0.5248 
     39 N          28.7362    3.1206   -6.0887 N.am      6 UNK        -0.4434 
     40 CA         29.0620    4.0198   -7.1871 C.3       6 UNK         0.0363 
     41 CB         27.9192    5.0413   -7.3635 C.3       6 UNK        -0.1936 
     42 C          29.2967    3.1929   -8.4593 C.2       6 UNK         0.5081 
     43 O          29.2850    1.9576   -8.4148 O.2       6 UNK        -0.5248 
     44 N          29.4915    3.8901   -9.5873 N.am      7 UNK        -0.4718 
     45 CA         29.7478    3.3308  -10.9215 C.3       7 UNK         0.0273 
     46 CB         29.8945    4.4798  -11.9312 C.3       7 UNK        -0.1935 
     47 C          28.7013    2.3146  -11.4157 C.2       7 UNK         0.5018 
     48 O          29.0546    1.4326  -12.1975 O.2       7 UNK        -0.5186 
     49 N          27.4653    2.4051  -10.9028 N.am      8 UNK        -0.4240 
     50 CA         26.3725    1.4500  -11.1187 C.3       8 UNK         0.0235 
     51 CB         25.1263    1.9342  -10.3594 C.3       8 UNK        -0.2000 
     52 C          26.7083   -0.0003  -10.7158 C.2       8 UNK         0.4941 
     53 O          26.1857   -0.9259  -11.3376 O.2       8 UNK        -0.5273 
     54 N          27.5809   -0.1712   -9.7125 N.am      9 UNK        -0.4262 
     55 CA         28.1154   -1.4634   -9.2725 C.3       9 UNK         0.0264 
     56 CB         27.8314   -1.6217   -7.7701 C.3       9 UNK        -0.1955 
     57 C          29.6248   -1.5851   -9.5580 C.2       9 UNK         0.5031 
     58 O          30.2536   -2.5138   -9.0494 O.2       9 UNK        -0.5390 
     59 N          30.1857   -0.6450  -10.3371 N.am      10 UNK        -0.4204 
     60 CA         31.6155   -0.4458  -10.6118 C.3       10 UNK         0.0237 
     61 CB         32.1991   -1.6285  -11.4146 C.3       10 UNK        -0.1985 
     62 C          32.4459   -0.1043   -9.3543 C.2       10 UNK         0.4970 
     63 O          33.6508   -0.3614   -9.3340 O.2       10 UNK        -0.4914 
     64 N          31.7994    0.4873   -8.3415 N.am      11 UNK        -0.4285 
     65 CA         32.4076    0.9077   -7.0698 C.3       11 UNK         0.1007 
     66 C          32.9273    2.3752   -7.0818 C.2       11 UNK         0.5703 
     67 N          32.8176    3.1176   -8.1778 N.am      11 UNK        -0.7361 
     68 O          33.4603    2.8468   -6.0806 O.2       11 UNK        -0.4986 
     69 C69        31.4450    0.6498   -5.8800 C.3       12 UNK        -0.0947 
     70 S70        31.1354   -1.1258   -5.6105 S.3       12 UNK        -0.2240 
     71 C71        32.3310   -1.4957   -4.2878 C.3       12 UNK         0.0194 
     72 H72        28.2406   -9.7706   -1.2675 H         1 UNK         0.0906 
     73 H73        26.5888  -10.1674   -0.7895 H         1 UNK         0.0906 
     74 H74        27.0029  -10.0213   -2.4999 H         1 UNK         0.0906 
     75 H75        28.7269   -7.5912   -1.0105 H         1 UNK         0.3140 
     76 H76        26.6634   -5.5826   -0.7030 H         1 UNK         0.1085 
     77 H77        28.5863   -5.4010    0.7466 H         1 UNK         0.0836 
     78 H78        28.5934   -4.0332   -0.3244 H         1 UNK         0.0836 
     79 H79        32.4171   -4.4000   -0.0596 H         1 UNK         0.0731 
     80 H80        31.0590   -3.9819    0.9500 H         1 UNK         0.0731 
     81 H81        32.2489   -3.6333   -2.6052 H         1 UNK         0.1312 
     82 H82        31.0133    0.4662   -2.8873 H         1 UNK         0.1406 
     83 H83        30.1260   -1.8085    0.6357 H         1 UNK         0.1631 
     84 H84        30.5443    1.5117   -0.4284 H         1 UNK         0.0717 
     85 H85        29.6200    0.4841    0.6222 H         1 UNK         0.0717 
     86 H86        28.3689    3.4378   -1.9877 H         1 UNK         0.0934 
     87 H87        29.8851    2.6357   -2.2873 H         1 UNK         0.0934 
     88 H88        28.8659    1.3181   -4.1357 H         1 UNK         0.0739 
     89 H89        26.3752    2.5435   -3.2580 H         1 UNK         0.3093 
     90 H90        24.4432    1.4929   -3.9422 H         1 UNK         0.0818 
     91 H91        24.4560    3.4546   -5.5266 H         1 UNK         0.0819 
     92 H92        24.5756    2.3653   -6.9021 H         1 UNK         0.0819 
     93 H93        23.1195    2.3799   -5.9092 H         1 UNK         0.0819 
     94 H94        25.2847   -0.3964   -5.9075 H         1 UNK         0.3041 
     95 H95        22.7589   -2.7015   -4.9639 H         1 UNK         0.0784 
     96 H96        22.1449   -1.9617   -7.2745 H         1 UNK         0.0793 
     97 H97        23.8442   -1.8628   -7.7136 H         1 UNK         0.0793 
     98 H98        23.1189   -3.4211   -7.3162 H         1 UNK         0.0793 
     99 H99        25.3686   -2.9940   -6.1022 H         1 UNK         0.3024 
    100 H100       27.0055   -3.9917   -4.8448 H         1 UNK         0.1171 
    101 H101       27.5877   -1.4560   -3.1853 H         1 UNK         0.0786 
    102 H102       28.8071   -2.4732   -3.9442 H         1 UNK         0.0786 
    103 H103       27.6757   -1.5693   -4.9343 H         1 UNK         0.0786 
    104 H104       26.5023   -3.6392   -1.9467 H         1 UNK         0.2977 
    105 H105       28.3238    2.2320   -6.3702 H         1 UNK         0.3127 
    106 H106       29.9931    4.5423   -6.9580 H         1 UNK         0.0770 
    107 H107       26.9841    4.5528   -7.6413 H         1 UNK         0.0814 
    108 H108       28.1490    5.7778   -8.1336 H         1 UNK         0.0814 
    109 H109       27.7400    5.5972   -6.4430 H         1 UNK         0.0814 
    110 H110       29.4858    4.8985   -9.5273 H         1 UNK         0.2983 
    111 H111       30.7011    2.8018  -10.8701 H         1 UNK         0.0947 
    112 H112       30.1110    4.0979  -12.9302 H         1 UNK         0.0806 
    113 H113       30.7129    5.1468  -11.6593 H         1 UNK         0.0806 
    114 H114       28.9833    5.0752  -12.0008 H         1 UNK         0.0806 
    115 H115       27.2810    3.1649  -10.2646 H         1 UNK         0.3000 
    116 H116       26.1483    1.4473  -12.1874 H         1 UNK         0.0850 
    117 H117       25.3042    1.9833   -9.2843 H         1 UNK         0.0810 
    118 H118       24.2845    1.2586  -10.5191 H         1 UNK         0.0810 
    119 H119       24.8133    2.9229  -10.6954 H         1 UNK         0.0810 
    120 H120       27.9645    0.6467   -9.2466 H         1 UNK         0.3040 
    121 H121       27.6256   -2.2834   -9.8009 H         1 UNK         0.0766 
    122 H122       28.3901   -0.8892   -7.1862 H         1 UNK         0.0812 
    123 H123       26.7726   -1.4911   -7.5494 H         1 UNK         0.0812 
    124 H124       28.1225   -2.6106   -7.4139 H         1 UNK         0.0812 
    125 H125       29.5694    0.0328  -10.7727 H         1 UNK         0.3205 
    126 H126       31.6734    0.4359  -11.2512 H         1 UNK         0.0754 
    127 H127       33.2104   -1.4079  -11.7585 H         1 UNK         0.0769 
    128 H128       31.5983   -1.8423  -12.2986 H         1 UNK         0.0769 
    129 H129       32.2524   -2.5385  -10.8163 H         1 UNK         0.0769 
    130 H130       30.8161    0.7161   -8.4436 H         1 UNK         0.2981 
    131 H131       33.2979    0.3009   -6.8952 H         1 UNK         0.0541 
    132 H132       33.1764    4.0590   -8.1709 H         1 UNK         0.3459 
    133 H133       32.4126    2.7354   -9.0150 H         1 UNK         0.3459 
    134 H134       30.4840    1.1222   -6.0697 H         1 UNK         0.0612 
    135 H135       31.8240    1.0902   -4.9571 H         1 UNK         0.0612 
    136 H136       32.8150   -2.4414   -4.5359 H         1 UNK         0.0624 
    137 H137       33.1266   -0.7498   -4.2709 H         1 UNK         0.0624 
@<TRIPOS>BOND
     1    1    2 1    
     2    1   72 1    
     3    1   73 1    
     4    1   74 1    
     5    2    3 2    
     6    2    4 am   BACKBONE|DICT|INTERRES
     7    4    5 1    
     8    4   75 1    
     9    5    6 1    
    10    5   35 1    
    11    5   76 1    
    12    6    7 1    
    13    6   77 1    
    14    6   78 1    
    15    7    8 1    
    16    8    9 1    
    17    8   79 1    
    18    8   80 1    
    19    9   10 ar   
    20    9   14 ar   
    21   10   11 ar   
    22   10   81 1    
    23   11   12 ar   
    24   11   71 1    
    25   12   13 ar   
    26   12   82 1    
    27   13   14 ar   
    28   13   15 1    
    29   14   83 1    
    30   15   16 1    
    31   15   84 1    
    32   15   85 1    
    33   16   17 1    
    34   17   18 1    
    35   17   86 1    
    36   17   87 1    
    37   18   19 1    
    38   18   37 1    
    39   18   88 1    
    40   19   20 am   BACKBONE|DICT|INTERRES
    41   19   89 1    
    42   20   21 2    
    43   20   22 1    
    44   22   23 1    
    45   22   24 1    
    46   22   90 1    
    47   23   91 1    
    48   23   92 1    
    49   23   93 1    
    50   24   25 am   BACKBONE|DICT|INTERRES
    51   24   94 1    
    52   25   26 2    
    53   25   27 1    
    54   27   28 1    
    55   27   29 1    
    56   27   95 1    
    57   28   96 1    
    58   28   97 1    
    59   28   98 1    
    60   29   30 am   BACKBONE|DICT|INTERRES
    61   29   99 1    
    62   30   31 2    
    63   30   32 1    
    64   32   33 1    
    65   32   34 1    
    66   32  100 1    
    67   33  101 1    
    68   33  102 1    
    69   33  103 1    
    70   34   35 am   BACKBONE|DICT|INTERRES
    71   34  104 1    
    72   35   36 2    
    73   37   38 2    
    74   37   39 am   BACKBONE|DICT|INTERRES
    75   39   40 1    
    76   39  105 1    
    77   40   41 1    
    78   40   42 1    
    79   40  106 1    
    80   41  107 1    
    81   41  108 1    
    82   41  109 1    
    83   42   43 2    
    84   42   44 am   BACKBONE|DICT|INTERRES
    85   44   45 1    
    86   44  110 1    
    87   45   46 1    
    88   45   47 1    
    89   45  111 1    
    90   46  112 1    
    91   46  113 1    
    92   46  114 1    
    93   47   48 2    
    94   47   49 am   BACKBONE|DICT|INTERRES
    95   49   50 1    
    96   49  115 1    
    97   50   51 1    
    98   50   52 1    
    99   50  116 1    
   100   51  117 1    
   101   51  118 1    
   102   51  119 1    
   103   52   53 2    
   104   52   54 am   BACKBONE|DICT|INTERRES
   105   54   55 1    
   106   54  120 1    
   107   55   56 1    
   108   55   57 1    
   109   55  121 1    
   110   56  122 1    
   111   56  123 1    
   112   56  124 1    
   113   57   58 2    
   114   57   59 am   BACKBONE|DICT|INTERRES
   115   59   60 1    
   116   59  125 1    
   117   60   61 1    
   118   60   62 1    
   119   60  126 1    
   120   61  127 1    
   121   61  128 1    
   122   61  129 1    
   123   62   63 2    
   124   62   64 am   BACKBONE|DICT|INTERRES
   125   64   65 1    
   126   64  130 1    
   127   65   66 1    
   128   65   69 1    
   129   65  131 1    
   130   66   67 am   BACKBONE|DICT|INTERRES
   131   66   68 2    
   132   67  132 1    
   133   67  133 1    
   134   69   70 1    
   135   69  134 1    
   136   69  135 1    
   137   70   71 1    
   138   71  136 1    
   139   71  137 1    
@<TRIPOS>SUBSTRUCTURE
     1 UNK         1 GROUP             0       ****    0 ROOT    
