@<TRIPOS>MOLECULE
3R137
137   139    1
SMALL
USER_CHARGES


@<TRIPOS>ATOM
      1 CA         25.1608   -5.7653    0.3980 C.3       0 UNK        -0.2020 
      2 C          25.8672   -5.7853   -0.9547 C.2       0 UNK         0.4855 
      3 O          25.5598   -6.6390   -1.7833 O.2       0 UNK        -0.5197 
      4 N          26.8117   -4.8749   -1.2309 N.am      1 UNK        -0.4892 
      5 CA         27.2812   -3.7870   -0.3542 C.3       1 UNK         0.0835 
      6 C6         28.7378   -3.3753   -0.6809 C.3       12 UNK        -0.0855 
      7 S7         29.8936   -4.7800   -0.5308 S.3       12 UNK        -0.2931 
      8 C8         31.4058   -4.0891   -1.2866 C.3       12 UNK         0.0378 
      9 C9         31.2923   -3.7176   -2.7664 C.ar      12 UNK        -0.0802 
     10 C10        32.1835   -2.7726   -3.2875 C.ar      12 UNK        -0.0944 
     11 C11        32.1378   -2.4130   -4.6368 C.ar      12 UNK        -0.0787 
     12 C12        31.1632   -2.9823   -5.4594 C.ar      12 UNK        -0.0862 
     13 C13        30.2704   -3.9365   -4.9663 C.ar      12 UNK        -0.0733 
     14 C14        30.3557   -4.3154   -3.6228 C.ar      12 UNK        -0.0832 
     15 C15        29.2732   -4.5903   -5.9211 C.3       12 UNK         0.0240 
     16 S16        27.5867   -4.7978   -5.2527 S.3       12 UNK        -0.2522 
     17 C17        27.0696   -3.0936   -4.8729 C.3       12 UNK        -0.0967 
     18 CA         26.7487   -2.2259   -6.1268 C.3       5 UNK         0.0660 
     19 N          25.4945   -1.4792   -5.9725 N.am      5 UNK        -0.4015 
     20 C          24.8807   -0.7845   -6.9434 C.2       4 UNK         0.4946 
     21 O          25.2680   -0.7481   -8.1102 O.2       4 UNK        -0.5353 
     22 CA         23.6480    0.0464   -6.5420 C.3       4 UNK         0.0277 
     23 CB         22.3731   -0.8076   -6.6265 C.3       4 UNK        -0.1981 
     24 N          23.7572    0.6320   -5.2034 N.am      4 UNK        -0.4209 
     25 C          24.6709    1.5455   -4.8417 C.2       3 UNK         0.4942 
     26 O          25.4719    2.0546   -5.6224 O.2       3 UNK        -0.5208 
     27 CA         24.7489    1.9053   -3.3467 C.3       3 UNK         0.0250 
     28 CB         23.8526    3.1143   -3.0362 C.3       3 UNK        -0.1990 
     29 N          24.4020    0.7915   -2.4551 N.am      3 UNK        -0.4232 
     30 C          25.0322   -0.3913   -2.4320 C.2       2 UNK         0.4993 
     31 O          25.9927   -0.6683   -3.1571 O.2       2 UNK        -0.5286 
     32 CA         24.4214   -1.4653   -1.5197 C.3       2 UNK         0.0209 
     33 CB         23.1467   -2.0446   -2.1583 C.3       2 UNK        -0.1931 
     34 N          25.3599   -2.5623   -1.2920 N.am      2 UNK        -0.4546 
     35 C          26.3512   -2.5534   -0.3921 C.2       1 UNK         0.5154 
     36 O          26.5383   -1.6294    0.4009 O.2       1 UNK        -0.5181 
     37 C          27.9009   -1.2522   -6.4322 C.2       5 UNK         0.5014 
     38 O          28.6404   -1.4453   -7.4009 O.2       5 UNK        -0.5248 
     39 N          27.9919   -0.1984   -5.6070 N.am      6 UNK        -0.4434 
     40 CA         28.9893    0.8602   -5.7280 C.3       6 UNK         0.0363 
     41 CB         28.9271    1.7867   -4.5052 C.3       6 UNK        -0.1936 
     42 C          28.8776    1.6531   -7.0369 C.2       6 UNK         0.5081 
     43 O          29.9051    1.9490   -7.6458 O.2       6 UNK        -0.5248 
     44 N          27.6430    1.9522   -7.4617 N.am      7 UNK        -0.4718 
     45 CA         27.3344    2.6041   -8.7342 C.3       7 UNK         0.0273 
     46 CB         25.8544    3.0168   -8.7596 C.3       7 UNK        -0.1935 
     47 C          27.6731    1.7298   -9.9515 C.2       7 UNK         0.5018 
     48 O          28.2301    2.2496  -10.9182 O.2       7 UNK        -0.5186 
     49 N          27.3524    0.4278   -9.8837 N.am      8 UNK        -0.4240 
     50 CA         27.6297   -0.5485  -10.9423 C.3       8 UNK         0.0235 
     51 CB         26.9331   -1.8823  -10.6280 C.3       8 UNK        -0.2000 
     52 C          29.1316   -0.7657  -11.1820 C.2       8 UNK         0.4941 
     53 O          29.5592   -0.7940  -12.3368 O.2       8 UNK        -0.5273 
     54 N          29.9052   -0.8971  -10.0956 N.am      9 UNK        -0.4262 
     55 CA         31.3647   -1.0311  -10.1508 C.3       9 UNK         0.0264 
     56 CB         31.8538   -1.6824   -8.8533 C.3       9 UNK        -0.1955 
     57 C          32.0979    0.3030  -10.3724 C.2       9 UNK         0.5031 
     58 O          33.2659    0.2812  -10.7630 O.2       9 UNK        -0.5390 
     59 N          31.4193    1.4236  -10.0875 N.am      10 UNK        -0.4204 
     60 CA         31.9268    2.7990  -10.0608 C.3       10 UNK         0.0237 
     61 CB         32.3858    3.2589  -11.4614 C.3       10 UNK        -0.1985 
     62 C          32.9874    3.0244   -8.9628 C.2       10 UNK         0.4970 
     63 O          33.8856    3.8486   -9.1458 O.2       10 UNK        -0.4914 
     64 N          32.8572    2.3048   -7.8385 N.am      11 UNK        -0.4285 
     65 CA         33.6903    2.4752   -6.6372 C.3       11 UNK         0.1007 
     66 C          33.1412    3.5400   -5.6431 C.2       11 UNK         0.5703 
     67 N          31.9292    4.0548   -5.8241 N.am      11 UNK        -0.7361 
     68 O          33.8373    3.9222   -4.7054 O.2       11 UNK        -0.4986 
     69 C69        34.0259    1.1208   -5.9524 C.3       12 UNK        -0.0947 
     70 S70        32.5997    0.2656   -5.2014 S.3       12 UNK        -0.2240 
     71 C71        33.1731   -1.4573   -5.2179 C.3       12 UNK         0.0194 
     72 H72        24.6897   -4.8016    0.5872 H         1 UNK         0.0906 
     73 H73        24.3789   -6.5239    0.4301 H         1 UNK         0.0906 
     74 H74        25.8625   -5.9811    1.2031 H         1 UNK         0.0906 
     75 H75        27.2801   -4.9345   -2.1238 H         1 UNK         0.3140 
     76 H76        27.2759   -4.1400    0.6787 H         1 UNK         0.1085 
     77 H77        28.7967   -2.9563   -1.6870 H         1 UNK         0.0836 
     78 H78        29.0794   -2.5900   -0.0033 H         1 UNK         0.0836 
     79 H79        31.7039   -3.2133   -0.7078 H         1 UNK         0.0731 
     80 H80        32.2090   -4.8189   -1.1772 H         1 UNK         0.0731 
     81 H81        32.9317   -2.3284   -2.6448 H         1 UNK         0.1312 
     82 H82        31.1127   -2.7028   -6.4979 H         1 UNK         0.1406 
     83 H83        29.6866   -5.0775   -3.2500 H         1 UNK         0.1631 
     84 H84        29.6566   -5.5753   -6.1897 H         1 UNK         0.0717 
     85 H85        29.2069   -4.0302   -6.8547 H         1 UNK         0.0717 
     86 H86        26.1769   -3.1984   -4.2550 H         1 UNK         0.0934 
     87 H87        27.8059   -2.6317   -4.2109 H         1 UNK         0.0934 
     88 H88        26.6244   -2.8753   -6.9961 H         1 UNK         0.0739 
     89 H89        25.1636   -1.3725   -5.0232 H         1 UNK         0.3093 
     90 H90        23.5575    0.8667   -7.2571 H         1 UNK         0.0818 
     91 H91        21.4818   -0.2110   -6.4314 H         1 UNK         0.0819 
     92 H92        22.2594   -1.2388   -7.6223 H         1 UNK         0.0819 
     93 H93        22.3883   -1.6333   -5.9139 H         1 UNK         0.0819 
     94 H94        23.1235    0.2854   -4.4986 H         1 UNK         0.3041 
     95 H95        25.7834    2.1831   -3.1342 H         1 UNK         0.0784 
     96 H96        24.1078    3.9621   -3.6740 H         1 UNK         0.0793 
     97 H97        22.7977    2.8899   -3.1995 H         1 UNK         0.0793 
     98 H98        23.9714    3.4423   -2.0034 H         1 UNK         0.0793 
     99 H99        23.6155    0.9377   -1.8379 H         1 UNK         0.3024 
    100 H100       24.1670   -1.0062   -0.5612 H         1 UNK         0.1171 
    101 H101       22.3878   -1.2743   -2.3015 H         1 UNK         0.0786 
    102 H102       22.7030   -2.8133   -1.5251 H         1 UNK         0.0786 
    103 H103       23.3471   -2.4916   -3.1331 H         1 UNK         0.0786 
    104 H104       25.3042   -3.3498   -1.9207 H         1 UNK         0.2977 
    105 H105       27.3370   -0.1303   -4.8363 H         1 UNK         0.3127 
    106 H106       29.9556    0.3634   -5.7378 H         1 UNK         0.0770 
    107 H107       27.9736    2.3115   -4.4429 H         1 UNK         0.0814 
    108 H108       29.7135    2.5410   -4.5514 H         1 UNK         0.0814 
    109 H109       29.0680    1.2301   -3.5786 H         1 UNK         0.0814 
    110 H110       26.8555    1.7491   -6.8498 H         1 UNK         0.2983 
    111 H111       27.9418    3.5096   -8.7991 H         1 UNK         0.0947 
    112 H112       25.6060    3.5260   -9.6918 H         1 UNK         0.0806 
    113 H113       25.6200    3.7007   -7.9437 H         1 UNK         0.0806 
    114 H114       25.1939    2.1536   -8.6716 H         1 UNK         0.0806 
    115 H115       26.8520    0.0841   -9.0691 H         1 UNK         0.3000 
    116 H116       27.2044   -0.1574  -11.8691 H         1 UNK         0.0850 
    117 H117       27.1441   -2.6263  -11.3973 H         1 UNK         0.0810 
    118 H118       25.8507   -1.7615  -10.5846 H         1 UNK         0.0810 
    119 H119       27.2611   -2.2954   -9.6733 H         1 UNK         0.0810 
    120 H120       29.4668   -0.9201   -9.1778 H         1 UNK         0.3040 
    121 H121       31.6273   -1.6910  -10.9806 H         1 UNK         0.0766 
    122 H122       32.9376   -1.8074   -8.8574 H         1 UNK         0.0812 
    123 H123       31.4139   -2.6715   -8.7273 H         1 UNK         0.0812 
    124 H124       31.5965   -1.0719   -7.9867 H         1 UNK         0.0812 
    125 H125       30.4806    1.3170   -9.7230 H         1 UNK         0.3205 
    126 H126       31.0747    3.4200   -9.7802 H         1 UNK         0.0754 
    127 H127       32.6074    4.3268  -11.4688 H         1 UNK         0.0769 
    128 H128       31.6104    3.0851  -12.2077 H         1 UNK         0.0769 
    129 H129       33.2877    2.7391  -11.7857 H         1 UNK         0.0769 
    130 H130       32.0355    1.7221   -7.7339 H         1 UNK         0.2981 
    131 H131       34.6520    2.8774   -6.9606 H         1 UNK         0.0541 
    132 H132       31.3454    3.7291   -6.5792 H         1 UNK         0.3459 
    133 H133       31.5896    4.7537   -5.1832 H         1 UNK         0.3459 
    134 H134       34.7763    1.2693   -5.1741 H         1 UNK         0.0612 
    135 H135       34.4877    0.4562   -6.6842 H         1 UNK         0.0612 
    136 H136       33.4118   -1.7490   -6.2415 H         1 UNK         0.0624 
    137 H137       34.1050   -1.5272   -4.6547 H         1 UNK         0.0624 
@<TRIPOS>BOND
     1    1    2 1    
     2    1   72 1    
     3    1   73 1    
     4    1   74 1    
     5    2    3 2    
     6    2    4 am   BACKBONE|DICT|INTERRES
     7    4    5 1    
     8    4   75 1    
     9    5    6 1    
    10    5   35 1    
    11    5   76 1    
    12    6    7 1    
    13    6   77 1    
    14    6   78 1    
    15    7    8 1    
    16    8    9 1    
    17    8   79 1    
    18    8   80 1    
    19    9   10 ar   
    20    9   14 ar   
    21   10   11 ar   
    22   10   81 1    
    23   11   12 ar   
    24   11   71 1    
    25   12   13 ar   
    26   12   82 1    
    27   13   14 ar   
    28   13   15 1    
    29   14   83 1    
    30   15   16 1    
    31   15   84 1    
    32   15   85 1    
    33   16   17 1    
    34   17   18 1    
    35   17   86 1    
    36   17   87 1    
    37   18   19 1    
    38   18   37 1    
    39   18   88 1    
    40   19   20 am   BACKBONE|DICT|INTERRES
    41   19   89 1    
    42   20   21 2    
    43   20   22 1    
    44   22   23 1    
    45   22   24 1    
    46   22   90 1    
    47   23   91 1    
    48   23   92 1    
    49   23   93 1    
    50   24   25 am   BACKBONE|DICT|INTERRES
    51   24   94 1    
    52   25   26 2    
    53   25   27 1    
    54   27   28 1    
    55   27   29 1    
    56   27   95 1    
    57   28   96 1    
    58   28   97 1    
    59   28   98 1    
    60   29   30 am   BACKBONE|DICT|INTERRES
    61   29   99 1    
    62   30   31 2    
    63   30   32 1    
    64   32   33 1    
    65   32   34 1    
    66   32  100 1    
    67   33  101 1    
    68   33  102 1    
    69   33  103 1    
    70   34   35 am   BACKBONE|DICT|INTERRES
    71   34  104 1    
    72   35   36 2    
    73   37   38 2    
    74   37   39 am   BACKBONE|DICT|INTERRES
    75   39   40 1    
    76   39  105 1    
    77   40   41 1    
    78   40   42 1    
    79   40  106 1    
    80   41  107 1    
    81   41  108 1    
    82   41  109 1    
    83   42   43 2    
    84   42   44 am   BACKBONE|DICT|INTERRES
    85   44   45 1    
    86   44  110 1    
    87   45   46 1    
    88   45   47 1    
    89   45  111 1    
    90   46  112 1    
    91   46  113 1    
    92   46  114 1    
    93   47   48 2    
    94   47   49 am   BACKBONE|DICT|INTERRES
    95   49   50 1    
    96   49  115 1    
    97   50   51 1    
    98   50   52 1    
    99   50  116 1    
   100   51  117 1    
   101   51  118 1    
   102   51  119 1    
   103   52   53 2    
   104   52   54 am   BACKBONE|DICT|INTERRES
   105   54   55 1    
   106   54  120 1    
   107   55   56 1    
   108   55   57 1    
   109   55  121 1    
   110   56  122 1    
   111   56  123 1    
   112   56  124 1    
   113   57   58 2    
   114   57   59 am   BACKBONE|DICT|INTERRES
   115   59   60 1    
   116   59  125 1    
   117   60   61 1    
   118   60   62 1    
   119   60  126 1    
   120   61  127 1    
   121   61  128 1    
   122   61  129 1    
   123   62   63 2    
   124   62   64 am   BACKBONE|DICT|INTERRES
   125   64   65 1    
   126   64  130 1    
   127   65   66 1    
   128   65   69 1    
   129   65  131 1    
   130   66   67 am   BACKBONE|DICT|INTERRES
   131   66   68 2    
   132   67  132 1    
   133   67  133 1    
   134   69   70 1    
   135   69  134 1    
   136   69  135 1    
   137   70   71 1    
   138   71  136 1    
   139   71  137 1    
@<TRIPOS>SUBSTRUCTURE
     1 UNK         1 GROUP             0       ****    0 ROOT    
