@<TRIPOS>MOLECULE
3R137
137   139    1
SMALL
USER_CHARGES


@<TRIPOS>ATOM
      1 CA         27.5679   -6.1680   -6.5289 C.3       0 UNK        -0.2020 
      2 C          27.3001   -5.6482   -5.1249 C.2       0 UNK         0.4855 
      3 O          26.1504   -5.6469   -4.6832 O.2       0 UNK        -0.5197 
      4 N          28.3483   -5.2134   -4.4148 N.am      1 UNK        -0.4892 
      5 CA         28.2526   -4.7015   -3.0463 C.3       1 UNK         0.0835 
      6 C6         29.6059   -4.7926   -2.3013 C.3       12 UNK        -0.0855 
      7 S7         29.3838   -4.6285   -0.4903 S.3       12 UNK        -0.2931 
      8 C8         30.9472   -3.8785    0.0731 C.3       12 UNK         0.0378 
      9 C9         31.3211   -2.6219   -0.7009 C.ar      12 UNK        -0.0802 
     10 C10        32.4480   -2.6334   -1.5265 C.ar      12 UNK        -0.0944 
     11 C11        32.7907   -1.5066   -2.2757 C.ar      12 UNK        -0.0787 
     12 C12        32.0210   -0.3462   -2.1646 C.ar      12 UNK        -0.0862 
     13 C13        30.8854   -0.3219   -1.3492 C.ar      12 UNK        -0.0733 
     14 C14        30.5416   -1.4625   -0.6142 C.ar      12 UNK        -0.0832 
     15 C15        30.0313    0.9365   -1.2702 C.3       12 UNK         0.0240 
     16 S16        28.7000    0.9449   -2.5150 S.3       12 UNK        -0.2522 
     17 C17        29.6276    1.2188   -4.0567 C.3       12 UNK        -0.0967 
     18 CA         28.7806    1.2803   -5.3490 C.3       5 UNK         0.0660 
     19 N          28.1485    0.0078   -5.7143 N.am      5 UNK        -0.4015 
     20 C          27.8257   -0.2830   -6.9833 C.2       4 UNK         0.4946 
     21 O          28.1334    0.4326   -7.9380 O.2       4 UNK        -0.5353 
     22 CA         27.0336   -1.5649   -7.2616 C.3       4 UNK         0.0277 
     23 CB         27.9757   -2.7546   -7.4745 C.3       4 UNK        -0.1981 
     24 N          26.0578   -1.8751   -6.2187 N.am      4 UNK        -0.4209 
     25 C          24.9024   -1.2156   -6.0596 C.2       3 UNK         0.4942 
     26 O          24.5622   -0.2573   -6.7506 O.2       3 UNK        -0.5208 
     27 CA         23.9808   -1.6858   -4.9236 C.3       3 UNK         0.0250 
     28 CB         23.1477   -2.8980   -5.3693 C.3       3 UNK        -0.1990 
     29 N          24.7129   -2.0172   -3.7016 N.am      3 UNK        -0.4232 
     30 C          25.4173   -1.1332   -2.9820 C.2       2 UNK         0.4993 
     31 O          25.4994    0.0631   -3.2558 O.2       2 UNK        -0.5286 
     32 CA         26.1987   -1.6921   -1.7838 C.3       2 UNK         0.0209 
     33 CB         25.2925   -1.7965   -0.5470 C.3       2 UNK        -0.1931 
     34 N          26.8306   -2.9892   -2.0398 N.am      2 UNK        -0.4546 
     35 C          27.6796   -3.2700   -3.0403 C.2       1 UNK         0.5154 
     36 O          28.0062   -2.4676   -3.9211 O.2       1 UNK        -0.5181 
     37 C          27.7806    2.4552   -5.4038 C.2       5 UNK         0.5014 
     38 O          28.1622    3.5306   -5.8673 O.2       5 UNK        -0.5248 
     39 N          26.5138    2.2290   -5.0142 N.am      6 UNK        -0.4434 
     40 CA         25.4234    3.2042   -5.1480 C.3       6 UNK         0.0363 
     41 CB         24.1707    2.7023   -4.4137 C.3       6 UNK        -0.1936 
     42 C          25.0885    3.5405   -6.6123 C.2       6 UNK         0.5081 
     43 O          24.8524    4.7074   -6.9253 O.2       6 UNK        -0.5248 
     44 N          25.1074    2.5264   -7.4892 N.am      7 UNK        -0.4718 
     45 CA         24.9273    2.6684   -8.9391 C.3       7 UNK         0.0273 
     46 CB         24.5741    1.2955   -9.5357 C.3       7 UNK        -0.1935 
     47 C          26.1499    3.2612   -9.6666 C.2       7 UNK         0.5018 
     48 O          26.0454    3.5509  -10.8591 O.2       7 UNK        -0.5186 
     49 N          27.2800    3.4053   -8.9576 N.am      8 UNK        -0.4240 
     50 CA         28.5876    3.8643   -9.4392 C.3       8 UNK         0.0235 
     51 CB         28.5235    5.3244   -9.9370 C.3       8 UNK        -0.2000 
     52 C          29.2399    2.9064  -10.4567 C.2       8 UNK         0.4941 
     53 O          30.0569    3.3433  -11.2694 O.2       8 UNK        -0.5273 
     54 N          28.9032    1.6113  -10.3700 N.am      9 UNK        -0.4262 
     55 CA         29.6034    0.5241  -11.0562 C.3       9 UNK         0.0264 
     56 CB         28.6949   -0.7133  -11.1414 C.3       9 UNK        -0.1955 
     57 C          30.9260    0.2000  -10.3408 C.2       9 UNK         0.5031 
     58 O          31.9259   -0.0309  -11.0198 O.2       9 UNK        -0.5390 
     59 N          30.8947    0.2539   -8.9969 N.am      10 UNK        -0.4204 
     60 CA         32.0181    0.2532   -8.0497 C.3       10 UNK         0.0237 
     61 CB         32.7288    1.6214   -8.1008 C.3       10 UNK        -0.1985 
     62 C          33.0139   -0.9163   -8.2454 C.2       10 UNK         0.4970 
     63 O          34.0216   -0.7384   -8.9298 O.2       10 UNK        -0.4914 
     64 N          32.7830   -2.1021   -7.6697 N.am      11 UNK        -0.4285 
     65 CA         31.7235   -2.4820   -6.7226 C.3       11 UNK         0.1007 
     66 C          31.3244   -3.9838   -6.8340 C.2       11 UNK         0.5703 
     67 N          31.6365   -4.6685   -7.9284 N.am      11 UNK        -0.7361 
     68 O          30.7029   -4.5372   -5.9298 O.2       11 UNK        -0.4986 
     69 C69        32.0510   -2.0357   -5.2696 C.3       12 UNK        -0.0947 
     70 S70        33.6241   -2.7078   -4.6254 S.3       12 UNK        -0.2240 
     71 C71        33.9609   -1.5652   -3.2459 C.3       12 UNK         0.0194 
     72 H72        26.7879   -5.8342   -7.2124 H         1 UNK         0.0906 
     73 H73        28.5277   -5.8248   -6.9135 H         1 UNK         0.0906 
     74 H74        27.5710   -7.2575   -6.5278 H         1 UNK         0.0906 
     75 H75        29.2587   -5.1247   -4.8629 H         1 UNK         0.3140 
     76 H76        27.5469   -5.3490   -2.5198 H         1 UNK         0.1085 
     77 H77        30.3023   -4.0488   -2.6907 H         1 UNK         0.0836 
     78 H78        30.0707   -5.7625   -2.4853 H         1 UNK         0.0836 
     79 H79        31.7375   -4.6274    0.0007 H         1 UNK         0.0731 
     80 H80        30.8588   -3.6324    1.1321 H         1 UNK         0.0731 
     81 H81        33.0423   -3.5323   -1.6186 H         1 UNK         0.1312 
     82 H82        32.2871    0.5304   -2.7388 H         1 UNK         0.1406 
     83 H83        29.6596   -1.4560    0.0119 H         1 UNK         0.1631 
     84 H84        30.6504    1.8268   -1.3913 H         1 UNK         0.0717 
     85 H85        29.5817    1.0138   -0.2792 H         1 UNK         0.0717 
     86 H86        30.2098    2.1361   -3.9495 H         1 UNK         0.0934 
     87 H87        30.3528    0.4134   -4.1641 H         1 UNK         0.0934 
     88 H88        29.5093    1.4984   -6.1336 H         1 UNK         0.0739 
     89 H89        27.9236   -0.6429   -4.9674 H         1 UNK         0.3093 
     90 H90        26.4902   -1.4058   -8.1956 H         1 UNK         0.0818 
     91 H91        28.7477   -2.5238   -8.2091 H         1 UNK         0.0819 
     92 H92        28.4724   -3.0423   -6.5484 H         1 UNK         0.0819 
     93 H93        27.4295   -3.6175   -7.8518 H         1 UNK         0.0819 
     94 H94        26.3061   -2.5955   -5.5543 H         1 UNK         0.3041 
     95 H95        23.2973   -0.8660   -4.6921 H         1 UNK         0.0784 
     96 H96        22.5865   -2.6723   -6.2773 H         1 UNK         0.0793 
     97 H97        23.7745   -3.7659   -5.5798 H         1 UNK         0.0793 
     98 H98        22.4239   -3.1840   -4.6059 H         1 UNK         0.0793 
     99 H99        24.7161   -2.9850   -3.4125 H         1 UNK         0.3024 
    100 H100       26.9962   -0.9885   -1.5517 H         1 UNK         0.1171 
    101 H101       25.8596   -2.0894    0.3368 H         1 UNK         0.0786 
    102 H102       24.8253   -0.8358   -0.3250 H         1 UNK         0.0786 
    103 H103       24.4920   -2.5234   -0.6900 H         1 UNK         0.0786 
    104 H104       26.6485   -3.7113   -1.3574 H         1 UNK         0.2977 
    105 H105       26.2760    1.3416   -4.5779 H         1 UNK         0.3127 
    106 H106       25.7482    4.1287   -4.6657 H         1 UNK         0.0770 
    107 H107       23.8188    1.7531   -4.8195 H         1 UNK         0.0814 
    108 H108       23.3526    3.4186   -4.4999 H         1 UNK         0.0814 
    109 H109       24.3655    2.5606   -3.3506 H         1 UNK         0.0814 
    110 H110       25.2159    1.5781   -7.1396 H         1 UNK         0.2983 
    111 H111       24.0888    3.3450   -9.1170 H         1 UNK         0.0947 
    112 H112       24.3993    1.3647  -10.6102 H         1 UNK         0.0806 
    113 H113       23.6664    0.8904   -9.0883 H         1 UNK         0.0806 
    114 H114       25.3763    0.5728   -9.3812 H         1 UNK         0.0806 
    115 H115       27.2504    3.1389   -7.9816 H         1 UNK         0.3000 
    116 H116       29.2410    3.8497   -8.5654 H         1 UNK         0.0850 
    117 H117       29.5228    5.7142  -10.1342 H         1 UNK         0.0810 
    118 H118       28.0641    5.9764   -9.1940 H         1 UNK         0.0810 
    119 H119       27.9537    5.4140  -10.8622 H         1 UNK         0.0810 
    120 H120       28.2726    1.3343   -9.6225 H         1 UNK         0.3040 
    121 H121       29.8373    0.8440  -12.0741 H         1 UNK         0.0766 
    122 H122       27.7785   -0.4922  -11.6888 H         1 UNK         0.0812 
    123 H123       28.4126   -1.0836  -10.1566 H         1 UNK         0.0812 
    124 H124       29.1967   -1.5283  -11.6647 H         1 UNK         0.0812 
    125 H125       29.9789    0.4016   -8.5819 H         1 UNK         0.3205 
    126 H126       31.5805    0.1819   -7.0567 H         1 UNK         0.0754 
    127 H127       33.5466    1.6645   -7.3802 H         1 UNK         0.0769 
    128 H128       32.0420    2.4334   -7.8607 H         1 UNK         0.0769 
    129 H129       33.1507    1.8241   -9.0862 H         1 UNK         0.0769 
    130 H130       33.4630   -2.8324   -7.8228 H         1 UNK         0.2981 
    131 H131       30.8126   -1.9631   -7.0192 H         1 UNK         0.0541 
    132 H132       32.0955   -4.2291   -8.7099 H         1 UNK         0.3459 
    133 H133       31.3729   -5.6392   -7.9855 H         1 UNK         0.3459 
    134 H134       32.1109   -0.9497   -5.2169 H         1 UNK         0.0612 
    135 H135       31.2430   -2.3140   -4.5897 H         1 UNK         0.0612 
    136 H136       34.1854   -0.5765   -3.6491 H         1 UNK         0.0624 
    137 H137       34.8558   -1.8966   -2.7177 H         1 UNK         0.0624 
@<TRIPOS>BOND
     1    1    2 1    
     2    1   72 1    
     3    1   73 1    
     4    1   74 1    
     5    2    3 2    
     6    2    4 am   BACKBONE|DICT|INTERRES
     7    4    5 1    
     8    4   75 1    
     9    5    6 1    
    10    5   35 1    
    11    5   76 1    
    12    6    7 1    
    13    6   77 1    
    14    6   78 1    
    15    7    8 1    
    16    8    9 1    
    17    8   79 1    
    18    8   80 1    
    19    9   10 ar   
    20    9   14 ar   
    21   10   11 ar   
    22   10   81 1    
    23   11   12 ar   
    24   11   71 1    
    25   12   13 ar   
    26   12   82 1    
    27   13   14 ar   
    28   13   15 1    
    29   14   83 1    
    30   15   16 1    
    31   15   84 1    
    32   15   85 1    
    33   16   17 1    
    34   17   18 1    
    35   17   86 1    
    36   17   87 1    
    37   18   19 1    
    38   18   37 1    
    39   18   88 1    
    40   19   20 am   BACKBONE|DICT|INTERRES
    41   19   89 1    
    42   20   21 2    
    43   20   22 1    
    44   22   23 1    
    45   22   24 1    
    46   22   90 1    
    47   23   91 1    
    48   23   92 1    
    49   23   93 1    
    50   24   25 am   BACKBONE|DICT|INTERRES
    51   24   94 1    
    52   25   26 2    
    53   25   27 1    
    54   27   28 1    
    55   27   29 1    
    56   27   95 1    
    57   28   96 1    
    58   28   97 1    
    59   28   98 1    
    60   29   30 am   BACKBONE|DICT|INTERRES
    61   29   99 1    
    62   30   31 2    
    63   30   32 1    
    64   32   33 1    
    65   32   34 1    
    66   32  100 1    
    67   33  101 1    
    68   33  102 1    
    69   33  103 1    
    70   34   35 am   BACKBONE|DICT|INTERRES
    71   34  104 1    
    72   35   36 2    
    73   37   38 2    
    74   37   39 am   BACKBONE|DICT|INTERRES
    75   39   40 1    
    76   39  105 1    
    77   40   41 1    
    78   40   42 1    
    79   40  106 1    
    80   41  107 1    
    81   41  108 1    
    82   41  109 1    
    83   42   43 2    
    84   42   44 am   BACKBONE|DICT|INTERRES
    85   44   45 1    
    86   44  110 1    
    87   45   46 1    
    88   45   47 1    
    89   45  111 1    
    90   46  112 1    
    91   46  113 1    
    92   46  114 1    
    93   47   48 2    
    94   47   49 am   BACKBONE|DICT|INTERRES
    95   49   50 1    
    96   49  115 1    
    97   50   51 1    
    98   50   52 1    
    99   50  116 1    
   100   51  117 1    
   101   51  118 1    
   102   51  119 1    
   103   52   53 2    
   104   52   54 am   BACKBONE|DICT|INTERRES
   105   54   55 1    
   106   54  120 1    
   107   55   56 1    
   108   55   57 1    
   109   55  121 1    
   110   56  122 1    
   111   56  123 1    
   112   56  124 1    
   113   57   58 2    
   114   57   59 am   BACKBONE|DICT|INTERRES
   115   59   60 1    
   116   59  125 1    
   117   60   61 1    
   118   60   62 1    
   119   60  126 1    
   120   61  127 1    
   121   61  128 1    
   122   61  129 1    
   123   62   63 2    
   124   62   64 am   BACKBONE|DICT|INTERRES
   125   64   65 1    
   126   64  130 1    
   127   65   66 1    
   128   65   69 1    
   129   65  131 1    
   130   66   67 am   BACKBONE|DICT|INTERRES
   131   66   68 2    
   132   67  132 1    
   133   67  133 1    
   134   69   70 1    
   135   69  134 1    
   136   69  135 1    
   137   70   71 1    
   138   71  136 1    
   139   71  137 1    
@<TRIPOS>SUBSTRUCTURE
     1 UNK         1 GROUP             0       ****    0 ROOT    
