@<TRIPOS>MOLECULE
3R137
137   139    1
SMALL
USER_CHARGES


@<TRIPOS>ATOM
      1 CA         25.6080   -1.9947   -0.4682 C.3       0 UNK        -0.2020 
      2 C          26.3730   -2.4935   -1.6837 C.2       0 UNK         0.4855 
      3 O          26.5508   -1.7442   -2.6422 O.2       0 UNK        -0.5197 
      4 N          26.8240   -3.7547   -1.6618 N.am      1 UNK        -0.4892 
      5 CA         27.5626   -4.4135   -2.7467 C.3       1 UNK         0.0835 
      6 C6         28.3635   -5.6244   -2.2029 C.3       12 UNK        -0.0855 
      7 S7         29.7745   -6.0655   -3.2727 S.3       12 UNK        -0.2931 
      8 C8         31.1947   -5.5709   -2.2464 C.3       12 UNK         0.0378 
      9 C9         31.4894   -4.0808   -2.3504 C.ar      12 UNK        -0.0802 
     10 C10        32.3379   -3.6120   -3.3564 C.ar      12 UNK        -0.0944 
     11 C11        32.6729   -2.2574   -3.4324 C.ar      12 UNK        -0.0787 
     12 C12        32.1467   -1.3636   -2.4957 C.ar      12 UNK        -0.0862 
     13 C13        31.2891   -1.8181   -1.4876 C.ar      12 UNK        -0.0733 
     14 C14        30.9603   -3.1772   -1.4229 C.ar      12 UNK        -0.0832 
     15 C15        30.7572   -0.8567   -0.4337 C.3       12 UNK         0.0240 
     16 S16        29.1691   -0.1090   -0.9147 S.3       12 UNK        -0.2522 
     17 C17        29.6976    1.2720   -1.9843 C.3       12 UNK        -0.0967 
     18 CA         29.0285    1.2514   -3.3847 C.3       5 UNK         0.0660 
     19 N          27.5666    1.3513   -3.2825 N.am      5 UNK        -0.4015 
     20 C          26.6778    1.0087   -4.2240 C.2       4 UNK         0.4946 
     21 O          26.9775    0.5405   -5.3285 O.2       4 UNK        -0.5353 
     22 CA         25.2091    1.3014   -3.9040 C.3       4 UNK         0.0277 
     23 CB         24.8675    2.7644   -4.2495 C.3       4 UNK        -0.1981 
     24 N          24.3828    0.3876   -4.6835 N.am      4 UNK        -0.4209 
     25 C          23.0881    0.1165   -4.4761 C.2       3 UNK         0.4942 
     26 O          22.4035    0.6564   -3.6061 O.2       3 UNK        -0.5208 
     27 CA         22.4423   -0.9441   -5.3886 C.3       3 UNK         0.0250 
     28 CB         21.7881   -0.2790   -6.6105 C.3       3 UNK        -0.1990 
     29 N          23.3995   -1.9629   -5.8328 N.am      3 UNK        -0.4232 
     30 C          23.9061   -2.9103   -5.0308 C.2       2 UNK         0.4993 
     31 O          23.5186   -3.0950   -3.8750 O.2       2 UNK        -0.5286 
     32 CA         25.0461   -3.7821   -5.5829 C.3       2 UNK         0.0209 
     33 CB         25.5866   -3.3259   -6.9525 C.3       2 UNK        -0.1931 
     34 N          26.1286   -3.7353   -4.6047 N.am      2 UNK        -0.4546 
     35 C          26.6100   -4.7722   -3.9139 C.2       1 UNK         0.5154 
     36 O          26.2897   -5.9436   -4.1291 O.2       1 UNK        -0.5181 
     37 C          29.5816    2.3723   -4.2958 C.2       5 UNK         0.5014 
     38 O          30.3659    3.2107   -3.8469 O.2       5 UNK        -0.5248 
     39 N          29.1251    2.3924   -5.5494 N.am      6 UNK        -0.4434 
     40 CA         29.4246    3.3954   -6.5631 C.3       6 UNK         0.0363 
     41 CB         28.4804    4.6054   -6.3943 C.3       6 UNK        -0.1936 
     42 C          29.3399    2.7268   -7.9412 C.2       6 UNK         0.5081 
     43 O          29.6352    1.5343   -8.0537 O.2       6 UNK        -0.5248 
     44 N          28.9381    3.4847   -8.9706 N.am      7 UNK        -0.4718 
     45 CA         28.8488    3.0558  -10.3730 C.3       7 UNK         0.0273 
     46 CB         28.3443    4.2271  -11.2304 C.3       7 UNK        -0.1935 
     47 C          27.9862    1.8037  -10.6152 C.2       7 UNK         0.5018 
     48 O          28.2973    1.0340  -11.5231 O.2       7 UNK        -0.5186 
     49 N          26.9651    1.5895   -9.7723 N.am      8 UNK        -0.4240 
     50 CA         26.1175    0.3924   -9.7635 C.3       8 UNK         0.0235 
     51 CB         24.9804    0.5815   -8.7466 C.3       8 UNK        -0.2000 
     52 C          26.8876   -0.9069   -9.4614 C.2       8 UNK         0.4941 
     53 O          26.5474   -1.9503  -10.0185 O.2       8 UNK        -0.5273 
     54 N          27.9096   -0.8156   -8.6002 N.am      9 UNK        -0.4262 
     55 CA         28.8141   -1.9118   -8.2448 C.3       9 UNK         0.0264 
     56 CB         29.1166   -1.8195   -6.7372 C.3       9 UNK        -0.1955 
     57 C          30.1210   -1.8794   -9.0618 C.2       9 UNK         0.5031 
     58 O          30.9463   -2.7781   -8.8969 O.2       9 UNK        -0.5390 
     59 N          30.2963   -0.8450   -9.9012 N.am      10 UNK        -0.4204 
     60 CA         31.5248   -0.4488  -10.6030 C.3       10 UNK         0.0237 
     61 CB         31.9647   -1.5195  -11.6245 C.3       10 UNK        -0.1985 
     62 C          32.6495   -0.0319   -9.6305 C.2       10 UNK         0.4970 
     63 O          33.8269   -0.2560   -9.9173 O.2       10 UNK        -0.4914 
     64 N          32.2571    0.5734   -8.5034 N.am      11 UNK        -0.4285 
     65 CA         33.1232    1.0000   -7.3936 C.3       11 UNK         0.1007 
     66 C          33.3096    2.5431   -7.3233 C.2       11 UNK         0.5703 
     67 N          32.8154    3.3196   -8.2813 N.am      11 UNK        -0.7361 
     68 O          33.9368    3.0484   -6.3957 O.2       11 UNK        -0.4986 
     69 C69        32.6150    0.4099   -6.0492 C.3       12 UNK        -0.0947 
     70 S70        32.7246   -1.4122   -6.0524 S.3       12 UNK        -0.2240 
     71 C71        33.6241   -1.7774   -4.5165 C.3       12 UNK         0.0194 
     72 H72        25.5256   -2.7577    0.3054 H         1 UNK         0.0906 
     73 H73        26.1128   -1.1288   -0.0404 H         1 UNK         0.0906 
     74 H74        24.6019   -1.6941   -0.7600 H         1 UNK         0.0906 
     75 H75        26.6120   -4.3371   -0.8640 H         1 UNK         0.3140 
     76 H76        28.2844   -3.6882   -3.1325 H         1 UNK         0.1085 
     77 H77        28.7465   -5.3978   -1.2072 H         1 UNK         0.0836 
     78 H78        27.7279   -6.5015   -2.0674 H         1 UNK         0.0836 
     79 H79        32.0686   -6.1357   -2.5753 H         1 UNK         0.0731 
     80 H80        31.0317   -5.8615   -1.2074 H         1 UNK         0.0731 
     81 H81        32.7496   -4.3060   -4.0767 H         1 UNK         0.1312 
     82 H82        32.4188   -0.3189   -2.5462 H         1 UNK         0.1406 
     83 H83        30.3083   -3.5332   -0.6370 H         1 UNK         0.1631 
     84 H84        31.4891   -0.0759   -0.2212 H         1 UNK         0.0717 
     85 H85        30.6132   -1.3903    0.5070 H         1 UNK         0.0717 
     86 H86        29.4686    2.2043   -1.4643 H         1 UNK         0.0934 
     87 H87        30.7831    1.2524   -2.0853 H         1 UNK         0.0934 
     88 H88        29.2744    0.2992   -3.8611 H         1 UNK         0.0739 
     89 H89        27.2222    1.7312   -2.4136 H         1 UNK         0.3093 
     90 H90        25.0350    1.1139   -2.8422 H         1 UNK         0.0818 
     91 H91        25.5008    3.4586   -3.6958 H         1 UNK         0.0819 
     92 H92        25.0105    2.9684   -5.3116 H         1 UNK         0.0819 
     93 H93        23.8343    3.0051   -3.9996 H         1 UNK         0.0819 
     94 H94        24.8996   -0.1165   -5.3923 H         1 UNK         0.3041 
     95 H95        21.6571   -1.4406   -4.8139 H         1 UNK         0.0784 
     96 H96        21.0156    0.4255   -6.2988 H         1 UNK         0.0793 
     97 H97        22.5101    0.2790   -7.2061 H         1 UNK         0.0793 
     98 H98        21.3106   -1.0148   -7.2580 H         1 UNK         0.0793 
     99 H99        23.7437   -1.8918   -6.7788 H         1 UNK         0.3024 
    100 H100       24.6539   -4.7969   -5.6800 H         1 UNK         0.1171 
    101 H101       24.8262   -3.4010   -7.7308 H         1 UNK         0.0786 
    102 H102       25.9438   -2.2960   -6.9260 H         1 UNK         0.0786 
    103 H103       26.4204   -3.9530   -7.2682 H         1 UNK         0.0786 
    104 H104       26.3460   -2.8146   -4.2285 H         1 UNK         0.2977 
    105 H105       28.4869    1.6513   -5.8318 H         1 UNK         0.3127 
    106 H106       30.4565    3.7300   -6.4395 H         1 UNK         0.0770 
    107 H107       28.7463    5.4206   -7.0679 H         1 UNK         0.0814 
    108 H108       28.5354    5.0088   -5.3829 H         1 UNK         0.0814 
    109 H109       27.4404    4.3363   -6.5839 H         1 UNK         0.0814 
    110 H110       28.7091    4.4509   -8.7853 H         1 UNK         0.2983 
    111 H111       29.8618    2.8095  -10.6978 H         1 UNK         0.0947 
    112 H112       28.2891    3.9458  -12.2833 H         1 UNK         0.0806 
    113 H113       29.0121    5.0861  -11.1632 H         1 UNK         0.0806 
    114 H114       27.3477    4.5504  -10.9271 H         1 UNK         0.0806 
    115 H115       26.7892    2.2805   -9.0578 H         1 UNK         0.3000 
    116 H116       25.6782    0.2901  -10.7582 H         1 UNK         0.0850 
    117 H117       25.3608    0.7133   -7.7326 H         1 UNK         0.0810 
    118 H118       24.3218   -0.2878   -8.7410 H         1 UNK         0.0810 
    119 H119       24.3670    1.4488   -8.9917 H         1 UNK         0.0810 
    120 H120       28.1434    0.0905   -8.2091 H         1 UNK         0.3040 
    121 H121       28.3340   -2.8726   -8.4395 H         1 UNK         0.0766 
    122 H122       28.2072   -1.8803   -6.1399 H         1 UNK         0.0812 
    123 H123       29.6157   -0.8834   -6.4845 H         1 UNK         0.0812 
    124 H124       29.7682   -2.6328   -6.4151 H         1 UNK         0.0812 
    125 H125       29.5285   -0.1918   -9.9834 H         1 UNK         0.3205 
    126 H126       31.2688    0.4500  -11.1656 H         1 UNK         0.0754 
    127 H127       32.7794   -1.1512  -12.2490 H         1 UNK         0.0769 
    128 H128       31.1455   -1.7922  -12.2897 H         1 UNK         0.0769 
    129 H129       32.3178   -2.4278  -11.1356 H         1 UNK         0.0769 
    130 H130       31.2659    0.7556   -8.3642 H         1 UNK         0.2981 
    131 H131       34.1298    0.6119   -7.5576 H         1 UNK         0.0541 
    132 H132       32.3387    2.9157   -9.0701 H         1 UNK         0.3459 
    133 H133       32.9645    4.3149   -8.2331 H         1 UNK         0.3459 
    134 H134       31.5766    0.6937   -5.8743 H         1 UNK         0.0612 
    135 H135       33.1845    0.8060   -5.2076 H         1 UNK         0.0612 
    136 H136       34.1957   -0.9126   -4.1779 H         1 UNK         0.0624 
    137 H137       34.3596   -2.5553   -4.7264 H         1 UNK         0.0624 
@<TRIPOS>BOND
     1    1    2 1    
     2    1   72 1    
     3    1   73 1    
     4    1   74 1    
     5    2    3 2    
     6    2    4 am   BACKBONE|DICT|INTERRES
     7    4    5 1    
     8    4   75 1    
     9    5    6 1    
    10    5   35 1    
    11    5   76 1    
    12    6    7 1    
    13    6   77 1    
    14    6   78 1    
    15    7    8 1    
    16    8    9 1    
    17    8   79 1    
    18    8   80 1    
    19    9   10 ar   
    20    9   14 ar   
    21   10   11 ar   
    22   10   81 1    
    23   11   12 ar   
    24   11   71 1    
    25   12   13 ar   
    26   12   82 1    
    27   13   14 ar   
    28   13   15 1    
    29   14   83 1    
    30   15   16 1    
    31   15   84 1    
    32   15   85 1    
    33   16   17 1    
    34   17   18 1    
    35   17   86 1    
    36   17   87 1    
    37   18   19 1    
    38   18   37 1    
    39   18   88 1    
    40   19   20 am   BACKBONE|DICT|INTERRES
    41   19   89 1    
    42   20   21 2    
    43   20   22 1    
    44   22   23 1    
    45   22   24 1    
    46   22   90 1    
    47   23   91 1    
    48   23   92 1    
    49   23   93 1    
    50   24   25 am   BACKBONE|DICT|INTERRES
    51   24   94 1    
    52   25   26 2    
    53   25   27 1    
    54   27   28 1    
    55   27   29 1    
    56   27   95 1    
    57   28   96 1    
    58   28   97 1    
    59   28   98 1    
    60   29   30 am   BACKBONE|DICT|INTERRES
    61   29   99 1    
    62   30   31 2    
    63   30   32 1    
    64   32   33 1    
    65   32   34 1    
    66   32  100 1    
    67   33  101 1    
    68   33  102 1    
    69   33  103 1    
    70   34   35 am   BACKBONE|DICT|INTERRES
    71   34  104 1    
    72   35   36 2    
    73   37   38 2    
    74   37   39 am   BACKBONE|DICT|INTERRES
    75   39   40 1    
    76   39  105 1    
    77   40   41 1    
    78   40   42 1    
    79   40  106 1    
    80   41  107 1    
    81   41  108 1    
    82   41  109 1    
    83   42   43 2    
    84   42   44 am   BACKBONE|DICT|INTERRES
    85   44   45 1    
    86   44  110 1    
    87   45   46 1    
    88   45   47 1    
    89   45  111 1    
    90   46  112 1    
    91   46  113 1    
    92   46  114 1    
    93   47   48 2    
    94   47   49 am   BACKBONE|DICT|INTERRES
    95   49   50 1    
    96   49  115 1    
    97   50   51 1    
    98   50   52 1    
    99   50  116 1    
   100   51  117 1    
   101   51  118 1    
   102   51  119 1    
   103   52   53 2    
   104   52   54 am   BACKBONE|DICT|INTERRES
   105   54   55 1    
   106   54  120 1    
   107   55   56 1    
   108   55   57 1    
   109   55  121 1    
   110   56  122 1    
   111   56  123 1    
   112   56  124 1    
   113   57   58 2    
   114   57   59 am   BACKBONE|DICT|INTERRES
   115   59   60 1    
   116   59  125 1    
   117   60   61 1    
   118   60   62 1    
   119   60  126 1    
   120   61  127 1    
   121   61  128 1    
   122   61  129 1    
   123   62   63 2    
   124   62   64 am   BACKBONE|DICT|INTERRES
   125   64   65 1    
   126   64  130 1    
   127   65   66 1    
   128   65   69 1    
   129   65  131 1    
   130   66   67 am   BACKBONE|DICT|INTERRES
   131   66   68 2    
   132   67  132 1    
   133   67  133 1    
   134   69   70 1    
   135   69  134 1    
   136   69  135 1    
   137   70   71 1    
   138   71  136 1    
   139   71  137 1    
@<TRIPOS>SUBSTRUCTURE
     1 UNK         1 GROUP             0       ****    0 ROOT    
