@<TRIPOS>MOLECULE
3R137
137   139    1
SMALL
USER_CHARGES


@<TRIPOS>ATOM
      1 CA         31.1951   -4.8315   -5.8413 C.3       0 UNK        -0.2020 
      2 C          29.9667   -5.4497   -5.1902 C.2       0 UNK         0.4855 
      3 O          29.5110   -6.5086   -5.6213 O.2       0 UNK        -0.5197 
      4 N          29.4335   -4.8008   -4.1472 N.am      1 UNK        -0.4892 
      5 CA         28.2803   -5.2693   -3.3655 C.3       1 UNK         0.0835 
      6 C6         28.1899   -4.5291   -2.0080 C.3       12 UNK        -0.0855 
      7 S7         29.3836   -5.1217   -0.7559 S.3       12 UNK        -0.2931 
      8 C8         31.0084   -4.4744   -1.2968 C.3       12 UNK         0.0378 
      9 C9         31.0910   -2.9681   -1.5486 C.ar      12 UNK        -0.0802 
     10 C10        32.0961   -2.4860   -2.3937 C.ar      12 UNK        -0.0944 
     11 C11        32.2173   -1.1182   -2.6543 C.ar      12 UNK        -0.0787 
     12 C12        31.3141   -0.2236   -2.0751 C.ar      12 UNK        -0.0862 
     13 C13        30.3081   -0.6878   -1.2239 C.ar      12 UNK        -0.0733 
     14 C14        30.2180   -2.0540   -0.9449 C.ar      12 UNK        -0.0832 
     15 C15        29.3161    0.2794   -0.5970 C.3       12 UNK         0.0240 
     16 S16        27.7078    0.2336   -1.4498 S.3       12 UNK        -0.2522 
     17 C17        28.0452    1.2265   -2.9445 C.3       12 UNK        -0.0967 
     18 CA         27.2300    0.7458   -4.1813 C.3       5 UNK         0.0660 
     19 N          25.7807    0.7294   -3.9431 N.am      5 UNK        -0.4015 
     20 C          24.9911    1.7986   -3.7451 C.2       4 UNK         0.4946 
     21 O          25.4062    2.9593   -3.7467 O.2       4 UNK        -0.5353 
     22 CA         23.4961    1.5587   -3.4400 C.3       4 UNK         0.0277 
     23 CB         22.5822    2.5694   -4.1675 C.3       4 UNK        -0.1981 
     24 N          23.0355    0.1786   -3.6427 N.am      4 UNK        -0.4209 
     25 C          22.9229   -0.4853   -4.8011 C.2       3 UNK         0.4942 
     26 O          23.1549   -0.0062   -5.9124 O.2       3 UNK        -0.5208 
     27 CA         22.5067   -1.9620   -4.6861 C.3       3 UNK         0.0250 
     28 CB         21.1277   -2.1929   -5.3263 C.3       3 UNK        -0.1990 
     29 N          23.4887   -2.8537   -5.3076 N.am      3 UNK        -0.4232 
     30 C          24.7846   -2.9244   -4.9737 C.2       2 UNK         0.4993 
     31 O          25.3045   -2.2499   -4.0785 O.2       2 UNK        -0.5286 
     32 CA         25.6471   -3.8745   -5.8205 C.3       2 UNK         0.0209 
     33 CB         26.0083   -3.2017   -7.1512 C.3       2 UNK        -0.1931 
     34 N          26.8798   -4.2368   -5.1184 N.am      2 UNK        -0.4546 
     35 C          26.9428   -5.1357   -4.1270 C.2       1 UNK         0.5154 
     36 O          25.9892   -5.8414   -3.7921 O.2       1 UNK        -0.5181 
     37 C          27.5480    1.5132   -5.4881 C.2       5 UNK         0.5014 
     38 O          27.0811    1.0981   -6.5518 O.2       5 UNK        -0.5248 
     39 N          28.3118    2.6131   -5.3872 N.am      6 UNK        -0.4434 
     40 CA         28.5395    3.6378   -6.4120 C.3       6 UNK         0.0363 
     41 CB         27.2740    4.5188   -6.5364 C.3       6 UNK        -0.1936 
     42 C          29.0441    3.0748   -7.7574 C.2       6 UNK         0.5081 
     43 O          29.9331    2.2168   -7.7670 O.2       6 UNK        -0.5248 
     44 N          28.4836    3.5799   -8.8637 N.am      7 UNK        -0.4718 
     45 CA         28.7893    3.1752  -10.2357 C.3       7 UNK         0.0273 
     46 CB         28.2896    4.2614  -11.2019 C.3       7 UNK        -0.1935 
     47 C          28.1997    1.8064  -10.6159 C.2       7 UNK         0.5018 
     48 O          28.6884    1.2005  -11.5688 O.2       7 UNK        -0.5186 
     49 N          27.1887    1.3302   -9.8715 N.am      8 UNK        -0.4240 
     50 CA         26.6110   -0.0072  -10.0357 C.3       8 UNK         0.0235 
     51 CB         25.2665   -0.1039   -9.2948 C.3       8 UNK        -0.2000 
     52 C          27.5872   -1.0968   -9.5671 C.2       8 UNK         0.4941 
     53 O          27.7644   -2.0945  -10.2662 O.2       8 UNK        -0.5273 
     54 N          28.2354   -0.8610   -8.4164 N.am      9 UNK        -0.4262 
     55 CA         29.3391   -1.6831   -7.9104 C.3       9 UNK         0.0264 
     56 CB         29.5063   -1.4336   -6.4039 C.3       9 UNK        -0.1955 
     57 C          30.6615   -1.4155   -8.6530 C.2       9 UNK         0.5031 
     58 O          31.5451   -2.2722   -8.6296 O.2       9 UNK        -0.5390 
     59 N          30.7613   -0.2372   -9.2873 N.am      10 UNK        -0.4204 
     60 CA         31.9124    0.3143  -10.0093 C.3       10 UNK         0.0237 
     61 CB         32.2916   -0.5614  -11.2226 C.3       10 UNK        -0.1985 
     62 C          33.0946    0.6119   -9.0701 C.2       10 UNK         0.4970 
     63 O          34.2501    0.4020   -9.4446 O.2       10 UNK        -0.4914 
     64 N          32.7764    1.1014   -7.8670 N.am      11 UNK        -0.4285 
     65 CA         33.7380    1.3987   -6.7970 C.3       11 UNK         0.1007 
     66 C          33.2596    2.4880   -5.7962 C.2       11 UNK         0.5703 
     67 N          32.0516    3.0283   -5.9108 N.am      11 UNK        -0.7361 
     68 O          34.0136    2.8743   -4.9064 O.2       11 UNK        -0.4986 
     69 C69        34.2599    0.1121   -6.0965 C.3       12 UNK        -0.0947 
     70 S70        32.9395   -0.8664   -5.3024 S.3       12 UNK        -0.2240 
     71 C71        33.3321   -0.6048   -3.5498 C.3       12 UNK         0.0194 
     72 H72        31.9860   -5.5754   -5.9319 H         1 UNK         0.0906 
     73 H73        30.9520   -4.4721   -6.8411 H         1 UNK         0.0906 
     74 H74        31.5888   -3.9951   -5.2638 H         1 UNK         0.0906 
     75 H75        29.8560   -3.9416   -3.8248 H         1 UNK         0.3140 
     76 H76        28.4132   -6.3359   -3.1694 H         1 UNK         0.1085 
     77 H77        28.2729   -3.4511   -2.1496 H         1 UNK         0.0836 
     78 H78        27.2065   -4.6788   -1.5562 H         1 UNK         0.0836 
     79 H79        31.3153   -5.0204   -2.1896 H         1 UNK         0.0731 
     80 H80        31.7409   -4.7266   -0.5291 H         1 UNK         0.0731 
     81 H81        32.7936   -3.1755   -2.8502 H         1 UNK         0.1312 
     82 H82        31.3995    0.8343   -2.2830 H         1 UNK         0.1406 
     83 H83        29.4473   -2.3998   -0.2701 H         1 UNK         0.1631 
     84 H84        29.7057    1.2987   -0.5991 H         1 UNK         0.0717 
     85 H85        29.1656    0.0140    0.4505 H         1 UNK         0.0717 
     86 H86        27.8242    2.2678   -2.7032 H         1 UNK         0.0934 
     87 H87        29.1124    1.1742   -3.1625 H         1 UNK         0.0934 
     88 H88        27.5048   -0.2922   -4.3673 H         1 UNK         0.0739 
     89 H89        25.3641   -0.1959   -3.9403 H         1 UNK         0.3093 
     90 H90        23.3899    1.7440   -2.3701 H         1 UNK         0.0818 
     91 H91        22.8163    3.5925   -3.8709 H         1 UNK         0.0819 
     92 H92        22.6977    2.5152   -5.2503 H         1 UNK         0.0819 
     93 H93        21.5320    2.3987   -3.9315 H         1 UNK         0.0819 
     94 H94        22.8389   -0.3308   -2.7914 H         1 UNK         0.3041 
     95 H95        22.4419   -2.2346   -3.6305 H         1 UNK         0.0784 
     96 H96        20.3733   -1.5516   -4.8685 H         1 UNK         0.0793 
     97 H97        21.1367   -1.9725   -6.3947 H         1 UNK         0.0793 
     98 H98        20.7960   -3.2235   -5.1978 H         1 UNK         0.0793 
     99 H99        23.1560   -3.4108   -6.0811 H         1 UNK         0.3024 
    100 H100       25.0789   -4.7854   -6.0243 H         1 UNK         0.1171 
    101 H101       26.4427   -2.2172   -6.9827 H         1 UNK         0.0786 
    102 H102       26.7166   -3.7961   -7.7288 H         1 UNK         0.0786 
    103 H103       25.1233   -3.0596   -7.7722 H         1 UNK         0.0786 
    104 H104       27.7000   -3.6837   -5.3104 H         1 UNK         0.2977 
    105 H105       28.6789    2.8407   -4.4752 H         1 UNK         0.3127 
    106 H106       29.3430    4.2722   -6.0362 H         1 UNK         0.0770 
    107 H107       26.4311    3.9648   -6.9525 H         1 UNK         0.0814 
    108 H108       27.4491    5.3947   -7.1623 H         1 UNK         0.0814 
    109 H109       26.9626    4.8918   -5.5602 H         1 UNK         0.0814 
    110 H110       27.7717    4.2878   -8.7525 H         1 UNK         0.2983 
    111 H111       29.8744    3.1026  -10.3362 H         1 UNK         0.0947 
    112 H112       28.5318    4.0065  -12.2348 H         1 UNK         0.0806 
    113 H113       28.7547    5.2247  -10.9917 H         1 UNK         0.0806 
    114 H114       27.2079    4.3892  -11.1436 H         1 UNK         0.0806 
    115 H115       26.8659    1.8756   -9.0843 H         1 UNK         0.3000 
    116 H116       26.4204   -0.1664  -11.0995 H         1 UNK         0.0850 
    117 H117       24.8073   -1.0805   -9.4523 H         1 UNK         0.0810 
    118 H118       24.5609    0.6452   -9.6540 H         1 UNK         0.0810 
    119 H119       25.3757    0.0307   -8.2183 H         1 UNK         0.0810 
    120 H120       27.9690   -0.0477   -7.8657 H         1 UNK         0.3040 
    121 H121       29.0870   -2.7357   -8.0563 H         1 UNK         0.0766 
    122 H122       29.7710   -0.3966   -6.1937 H         1 UNK         0.0812 
    123 H123       30.2994   -2.0560   -5.9923 H         1 UNK         0.0812 
    124 H124       28.5952   -1.6731   -5.8591 H         1 UNK         0.0812 
    125 H125       29.9853    0.4002   -9.1702 H         1 UNK         0.3205 
    126 H126       31.5890    1.2810  -10.3970 H         1 UNK         0.0754 
    127 H127       33.0500   -0.0723  -11.8350 H         1 UNK         0.0769 
    128 H128       31.4276   -0.7439  -11.8620 H         1 UNK         0.0769 
    129 H129       32.6949   -1.5274  -10.9177 H         1 UNK         0.0769 
    130 H130       31.8008    1.2643   -7.6506 H         1 UNK         0.2981 
    131 H131       34.5992    1.8638   -7.2802 H         1 UNK         0.0541 
    132 H132       31.7906    3.7443   -5.2530 H         1 UNK         0.3459 
    133 H133       31.3978    2.7397   -6.6276 H         1 UNK         0.3459 
    134 H134       35.0338    0.3574   -5.3672 H         1 UNK         0.0612 
    135 H135       34.7497   -0.5321   -6.8277 H         1 UNK         0.0612 
    136 H136       34.2666   -1.1139   -3.3092 H         1 UNK         0.0624 
    137 H137       33.5019    0.4579   -3.3699 H         1 UNK         0.0624 
@<TRIPOS>BOND
     1    1    2 1    
     2    1   72 1    
     3    1   73 1    
     4    1   74 1    
     5    2    3 2    
     6    2    4 am   BACKBONE|DICT|INTERRES
     7    4    5 1    
     8    4   75 1    
     9    5    6 1    
    10    5   35 1    
    11    5   76 1    
    12    6    7 1    
    13    6   77 1    
    14    6   78 1    
    15    7    8 1    
    16    8    9 1    
    17    8   79 1    
    18    8   80 1    
    19    9   10 ar   
    20    9   14 ar   
    21   10   11 ar   
    22   10   81 1    
    23   11   12 ar   
    24   11   71 1    
    25   12   13 ar   
    26   12   82 1    
    27   13   14 ar   
    28   13   15 1    
    29   14   83 1    
    30   15   16 1    
    31   15   84 1    
    32   15   85 1    
    33   16   17 1    
    34   17   18 1    
    35   17   86 1    
    36   17   87 1    
    37   18   19 1    
    38   18   37 1    
    39   18   88 1    
    40   19   20 am   BACKBONE|DICT|INTERRES
    41   19   89 1    
    42   20   21 2    
    43   20   22 1    
    44   22   23 1    
    45   22   24 1    
    46   22   90 1    
    47   23   91 1    
    48   23   92 1    
    49   23   93 1    
    50   24   25 am   BACKBONE|DICT|INTERRES
    51   24   94 1    
    52   25   26 2    
    53   25   27 1    
    54   27   28 1    
    55   27   29 1    
    56   27   95 1    
    57   28   96 1    
    58   28   97 1    
    59   28   98 1    
    60   29   30 am   BACKBONE|DICT|INTERRES
    61   29   99 1    
    62   30   31 2    
    63   30   32 1    
    64   32   33 1    
    65   32   34 1    
    66   32  100 1    
    67   33  101 1    
    68   33  102 1    
    69   33  103 1    
    70   34   35 am   BACKBONE|DICT|INTERRES
    71   34  104 1    
    72   35   36 2    
    73   37   38 2    
    74   37   39 am   BACKBONE|DICT|INTERRES
    75   39   40 1    
    76   39  105 1    
    77   40   41 1    
    78   40   42 1    
    79   40  106 1    
    80   41  107 1    
    81   41  108 1    
    82   41  109 1    
    83   42   43 2    
    84   42   44 am   BACKBONE|DICT|INTERRES
    85   44   45 1    
    86   44  110 1    
    87   45   46 1    
    88   45   47 1    
    89   45  111 1    
    90   46  112 1    
    91   46  113 1    
    92   46  114 1    
    93   47   48 2    
    94   47   49 am   BACKBONE|DICT|INTERRES
    95   49   50 1    
    96   49  115 1    
    97   50   51 1    
    98   50   52 1    
    99   50  116 1    
   100   51  117 1    
   101   51  118 1    
   102   51  119 1    
   103   52   53 2    
   104   52   54 am   BACKBONE|DICT|INTERRES
   105   54   55 1    
   106   54  120 1    
   107   55   56 1    
   108   55   57 1    
   109   55  121 1    
   110   56  122 1    
   111   56  123 1    
   112   56  124 1    
   113   57   58 2    
   114   57   59 am   BACKBONE|DICT|INTERRES
   115   59   60 1    
   116   59  125 1    
   117   60   61 1    
   118   60   62 1    
   119   60  126 1    
   120   61  127 1    
   121   61  128 1    
   122   61  129 1    
   123   62   63 2    
   124   62   64 am   BACKBONE|DICT|INTERRES
   125   64   65 1    
   126   64  130 1    
   127   65   66 1    
   128   65   69 1    
   129   65  131 1    
   130   66   67 am   BACKBONE|DICT|INTERRES
   131   66   68 2    
   132   67  132 1    
   133   67  133 1    
   134   69   70 1    
   135   69  134 1    
   136   69  135 1    
   137   70   71 1    
   138   71  136 1    
   139   71  137 1    
@<TRIPOS>SUBSTRUCTURE
     1 UNK         1 GROUP             0       ****    0 ROOT    
