@<TRIPOS>MOLECULE
3R137
137   139    1
SMALL
USER_CHARGES


@<TRIPOS>ATOM
      1 CA         29.3224   -8.2016   -0.2605 C.3       0 UNK        -0.2020 
      2 C          28.6860   -7.2260   -1.2396 C.2       0 UNK         0.4855 
      3 O          28.2739   -7.6357   -2.3252 O.2       0 UNK        -0.5197 
      4 N          28.6099   -5.9421   -0.8624 N.am      1 UNK        -0.4892 
      5 CA         27.9937   -4.8488   -1.6248 C.3       1 UNK         0.0835 
      6 C6         28.7354   -4.5576   -2.9632 C.3       12 UNK        -0.0855 
      7 S7         28.4500   -2.8683   -3.5929 S.3       12 UNK        -0.2931 
      8 C8         29.7525   -1.9481   -2.7227 C.3       12 UNK         0.0378 
      9 C9         29.6842   -0.4747   -3.0822 C.ar      12 UNK        -0.0802 
     10 C10        30.5134    0.0430   -4.0807 C.ar      12 UNK        -0.0944 
     11 C11        30.4319    1.3908   -4.4384 C.ar      12 UNK        -0.0787 
     12 C12        29.5192    2.2233   -3.7865 C.ar      12 UNK        -0.0862 
     13 C13        28.6782    1.7144   -2.7918 C.ar      12 UNK        -0.0733 
     14 C14        28.7733    0.3660   -2.4345 C.ar      12 UNK        -0.0832 
     15 C15        27.6488    2.6226   -2.1300 C.3       12 UNK         0.0240 
     16 S16        25.9246    2.1290   -2.4782 S.3       12 UNK        -0.2522 
     17 C17        25.9186    1.8713   -4.2874 C.3       12 UNK        -0.0967 
     18 CA         25.5687    0.3961   -4.6297 C.3       5 UNK         0.0660 
     19 N          24.1694    0.0270   -4.3674 N.am      5 UNK        -0.4015 
     20 C          23.0485    0.6043   -4.8362 C.2       4 UNK         0.4946 
     21 O          23.0247    1.6391   -5.5044 O.2       4 UNK        -0.5353 
     22 CA         21.7009   -0.0827   -4.5313 C.3       4 UNK         0.0277 
     23 CB         21.1259   -0.7213   -5.8076 C.3       4 UNK        -0.1981 
     24 N          21.7780   -1.1074   -3.4901 N.am      4 UNK        -0.4209 
     25 C          21.8585   -0.8641   -2.1751 C.2       3 UNK         0.4942 
     26 O          21.7898    0.2615   -1.6808 O.2       3 UNK        -0.5208 
     27 CA         22.0710   -2.0824   -1.2547 C.3       3 UNK         0.0250 
     28 CB         20.7353   -2.5263   -0.6358 C.3       3 UNK        -0.1990 
     29 N          22.7107   -3.2365   -1.9044 N.am      3 UNK        -0.4232 
     30 C          23.9324   -3.2250   -2.4551 C.2       2 UNK         0.4993 
     31 O          24.6343   -2.2144   -2.5416 O.2       2 UNK        -0.5286 
     32 CA         24.4311   -4.5389   -3.0727 C.3       2 UNK         0.0209 
     33 CB         24.1256   -4.5677   -4.5796 C.3       2 UNK        -0.1931 
     34 N          25.8750   -4.6531   -2.8791 N.am      2 UNK        -0.4546 
     35 C          26.4606   -5.0352   -1.7383 C.2       1 UNK         0.5154 
     36 O          25.8324   -5.4866   -0.7761 O.2       1 UNK        -0.5181 
     37 C          26.0053    0.0064   -6.0582 C.2       5 UNK         0.5014 
     38 O          25.2677    0.2131   -7.0237 O.2       5 UNK        -0.5248 
     39 N          27.2155   -0.5604   -6.1695 N.am      6 UNK        -0.4434 
     40 CA         27.7959   -1.0267   -7.4349 C.3       6 UNK         0.0363 
     41 CB         28.9450   -2.0012   -7.1379 C.3       6 UNK        -0.1936 
     42 C          28.2694    0.1061   -8.3640 C.2       6 UNK         0.5081 
     43 O          28.3482   -0.1094   -9.5742 O.2       6 UNK        -0.5248 
     44 N          28.5675    1.2831   -7.7927 N.am      7 UNK        -0.4718 
     45 CA         29.0077    2.5041   -8.4796 C.3       7 UNK         0.0273 
     46 CB         27.8458    3.1002   -9.3076 C.3       7 UNK        -0.1935 
     47 C          30.3099    2.2872   -9.2804 C.2       7 UNK         0.5018 
     48 O          31.2149    1.6047   -8.7927 O.2       7 UNK        -0.5186 
     49 N          30.3935    2.8549  -10.4914 N.am      8 UNK        -0.4240 
     50 CA         31.5661    2.8319  -11.3752 C.3       8 UNK         0.0235 
     51 CB         31.2502    3.6341  -12.6480 C.3       8 UNK        -0.2000 
     52 C          32.0926    1.4308  -11.7429 C.2       8 UNK         0.4941 
     53 O          33.2653    1.3130  -12.0984 O.2       8 UNK        -0.5273 
     54 N          31.2483    0.3955  -11.6248 N.am      9 UNK        -0.4262 
     55 CA         31.6250   -1.0060  -11.8200 C.3       9 UNK         0.0264 
     56 CB         30.3550   -1.8678  -11.9068 C.3       9 UNK        -0.1955 
     57 C          32.5705   -1.5524  -10.7322 C.2       9 UNK         0.5031 
     58 O          33.2704   -2.5297  -11.0032 O.2       9 UNK        -0.5390 
     59 N          32.5784   -0.9360   -9.5405 N.am      10 UNK        -0.4204 
     60 CA         33.4340   -1.3227   -8.4151 C.3       10 UNK         0.0237 
     61 CB         32.5620   -1.7992   -7.2435 C.3       10 UNK        -0.1985 
     62 C          34.3499   -0.1750   -7.9710 C.2       10 UNK         0.4970 
     63 O          35.5348   -0.4154   -7.7371 O.2       10 UNK        -0.4914 
     64 N          33.7984    1.0391   -7.8541 N.am      11 UNK        -0.4285 
     65 CA         34.5150    2.2384   -7.3912 C.3       11 UNK         0.1007 
     66 C          35.2403    3.0173   -8.5272 C.2       11 UNK         0.5703 
     67 N          35.1267    2.6274   -9.7915 N.am      11 UNK        -0.7361 
     68 O          35.9379    3.9912   -8.2538 O.2       11 UNK        -0.4986 
     69 C69        33.5893    3.1700   -6.5630 C.3       12 UNK        -0.0947 
     70 S70        32.9585    2.3876   -5.0359 S.3       12 UNK        -0.2240 
     71 C71        31.2849    1.9341   -5.5701 C.3       12 UNK         0.0194 
     72 H72        30.1861   -8.6830   -0.7186 H         1 UNK         0.0906 
     73 H73        29.6548   -7.7074    0.6522 H         1 UNK         0.0906 
     74 H74        28.6071   -8.9762    0.0149 H         1 UNK         0.0906 
     75 H75        28.9371   -5.6859    0.0593 H         1 UNK         0.3140 
     76 H76        28.1150   -3.9698   -0.9898 H         1 UNK         0.1085 
     77 H77        28.4551   -5.2791   -3.7330 H         1 UNK         0.0836 
     78 H78        29.8106   -4.6870   -2.8280 H         1 UNK         0.0836 
     79 H79        30.7288   -2.3603   -2.9832 H         1 UNK         0.0731 
     80 H80        29.6381   -2.0729   -1.6450 H         1 UNK         0.0731 
     81 H81        31.2137   -0.6056   -4.5887 H         1 UNK         0.1312 
     82 H82        29.4481    3.2644   -4.0712 H         1 UNK         0.1406 
     83 H83        28.1168   -0.0344   -1.6733 H         1 UNK         0.1631 
     84 H84        27.7836    3.6567   -2.4512 H         1 UNK         0.0717 
     85 H85        27.8066    2.6163   -1.0507 H         1 UNK         0.0717 
     86 H86        25.2175    2.5713   -4.7411 H         1 UNK         0.0934 
     87 H87        26.8883    2.1484   -4.6999 H         1 UNK         0.0934 
     88 H88        26.1458   -0.2415   -3.9565 H         1 UNK         0.0739 
     89 H89        24.0739   -0.8006   -3.7868 H         1 UNK         0.3093 
     90 H90        21.0095    0.6949   -4.1989 H         1 UNK         0.0818 
     91 H91        21.7753   -1.5083   -6.1934 H         1 UNK         0.0819 
     92 H92        20.1411   -1.1531   -5.6282 H         1 UNK         0.0819 
     93 H93        21.0118    0.0215   -6.5984 H         1 UNK         0.0819 
     94 H94        21.8237   -2.0673   -3.7987 H         1 UNK         0.3041 
     95 H95        22.7305   -1.7584   -0.4467 H         1 UNK         0.0784 
     96 H96        20.2484   -1.6966   -0.1210 H         1 UNK         0.0793 
     97 H97        20.0406   -2.8920   -1.3931 H         1 UNK         0.0793 
     98 H98        20.8808   -3.3183    0.0991 H         1 UNK         0.0793 
     99 H99        22.1895   -4.1022   -1.8921 H         1 UNK         0.3024 
    100 H100       23.9341   -5.3831   -2.5889 H         1 UNK         0.1171 
    101 H101       24.4843   -5.4896   -5.0380 H         1 UNK         0.0786 
    102 H102       23.0519   -4.5130   -4.7638 H         1 UNK         0.0786 
    103 H103       24.5905   -3.7311   -5.1038 H         1 UNK         0.0786 
    104 H104       26.4609   -4.2112   -3.5755 H         1 UNK         0.2977 
    105 H105       27.7646   -0.7202   -5.3349 H         1 UNK         0.3127 
    106 H106       27.0261   -1.5776   -7.9798 H         1 UNK         0.0770 
    107 H107       29.6784   -1.5610   -6.4643 H         1 UNK         0.0814 
    108 H108       29.4650   -2.2915   -8.0522 H         1 UNK         0.0814 
    109 H109       28.5753   -2.9159   -6.6748 H         1 UNK         0.0814 
    110 H110       28.5046    1.3388   -6.7871 H         1 UNK         0.2983 
    111 H111       29.2522    3.2271   -7.7012 H         1 UNK         0.0947 
    112 H112       28.0900    4.0941   -9.6844 H         1 UNK         0.0806 
    113 H113       26.9492    3.2092   -8.6969 H         1 UNK         0.0806 
    114 H114       27.5842    2.4720  -10.1602 H         1 UNK         0.0806 
    115 H115       29.5952    3.3771  -10.8224 H         1 UNK         0.3000 
    116 H116       32.3738    3.3404  -10.8445 H         1 UNK         0.0850 
    117 H117       32.1127    3.6642  -13.3157 H         1 UNK         0.0810 
    118 H118       30.9906    4.6668  -12.4142 H         1 UNK         0.0810 
    119 H119       30.4219    3.1955  -13.2059 H         1 UNK         0.0810 
    120 H120       30.3062    0.5734  -11.3023 H         1 UNK         0.3040 
    121 H121       32.1505   -1.0799  -12.7746 H         1 UNK         0.0766 
    122 H122       30.6043   -2.9068  -12.1265 H         1 UNK         0.0812 
    123 H123       29.6899   -1.5209  -12.6977 H         1 UNK         0.0812 
    124 H124       29.7973   -1.8603  -10.9699 H         1 UNK         0.0812 
    125 H125       31.9827   -0.1237   -9.4093 H         1 UNK         0.3205 
    126 H126       34.0858   -2.1517   -8.6984 H         1 UNK         0.0754 
    127 H127       31.8754   -1.0203   -6.9173 H         1 UNK         0.0769 
    128 H128       33.1745   -2.0774   -6.3847 H         1 UNK         0.0769 
    129 H129       31.9740   -2.6745   -7.5196 H         1 UNK         0.0769 
    130 H130       32.8223    1.1838   -8.0999 H         1 UNK         0.2981 
    131 H131       35.3130    1.9174   -6.7191 H         1 UNK         0.0541 
    132 H132       35.6137    3.1420  -10.5077 H         1 UNK         0.3459 
    133 H133       34.5701    1.8259  -10.0432 H         1 UNK         0.3459 
    134 H134       32.7570    3.5227   -7.1746 H         1 UNK         0.0612 
    135 H135       34.1308    4.0650   -6.2515 H         1 UNK         0.0612 
    136 H136       30.8053    2.8056   -6.0150 H         1 UNK         0.0624 
    137 H137       31.3553    1.1779   -6.3480 H         1 UNK         0.0624 
@<TRIPOS>BOND
     1    1    2 1    
     2    1   72 1    
     3    1   73 1    
     4    1   74 1    
     5    2    3 2    
     6    2    4 am   BACKBONE|DICT|INTERRES
     7    4    5 1    
     8    4   75 1    
     9    5    6 1    
    10    5   35 1    
    11    5   76 1    
    12    6    7 1    
    13    6   77 1    
    14    6   78 1    
    15    7    8 1    
    16    8    9 1    
    17    8   79 1    
    18    8   80 1    
    19    9   10 ar   
    20    9   14 ar   
    21   10   11 ar   
    22   10   81 1    
    23   11   12 ar   
    24   11   71 1    
    25   12   13 ar   
    26   12   82 1    
    27   13   14 ar   
    28   13   15 1    
    29   14   83 1    
    30   15   16 1    
    31   15   84 1    
    32   15   85 1    
    33   16   17 1    
    34   17   18 1    
    35   17   86 1    
    36   17   87 1    
    37   18   19 1    
    38   18   37 1    
    39   18   88 1    
    40   19   20 am   BACKBONE|DICT|INTERRES
    41   19   89 1    
    42   20   21 2    
    43   20   22 1    
    44   22   23 1    
    45   22   24 1    
    46   22   90 1    
    47   23   91 1    
    48   23   92 1    
    49   23   93 1    
    50   24   25 am   BACKBONE|DICT|INTERRES
    51   24   94 1    
    52   25   26 2    
    53   25   27 1    
    54   27   28 1    
    55   27   29 1    
    56   27   95 1    
    57   28   96 1    
    58   28   97 1    
    59   28   98 1    
    60   29   30 am   BACKBONE|DICT|INTERRES
    61   29   99 1    
    62   30   31 2    
    63   30   32 1    
    64   32   33 1    
    65   32   34 1    
    66   32  100 1    
    67   33  101 1    
    68   33  102 1    
    69   33  103 1    
    70   34   35 am   BACKBONE|DICT|INTERRES
    71   34  104 1    
    72   35   36 2    
    73   37   38 2    
    74   37   39 am   BACKBONE|DICT|INTERRES
    75   39   40 1    
    76   39  105 1    
    77   40   41 1    
    78   40   42 1    
    79   40  106 1    
    80   41  107 1    
    81   41  108 1    
    82   41  109 1    
    83   42   43 2    
    84   42   44 am   BACKBONE|DICT|INTERRES
    85   44   45 1    
    86   44  110 1    
    87   45   46 1    
    88   45   47 1    
    89   45  111 1    
    90   46  112 1    
    91   46  113 1    
    92   46  114 1    
    93   47   48 2    
    94   47   49 am   BACKBONE|DICT|INTERRES
    95   49   50 1    
    96   49  115 1    
    97   50   51 1    
    98   50   52 1    
    99   50  116 1    
   100   51  117 1    
   101   51  118 1    
   102   51  119 1    
   103   52   53 2    
   104   52   54 am   BACKBONE|DICT|INTERRES
   105   54   55 1    
   106   54  120 1    
   107   55   56 1    
   108   55   57 1    
   109   55  121 1    
   110   56  122 1    
   111   56  123 1    
   112   56  124 1    
   113   57   58 2    
   114   57   59 am   BACKBONE|DICT|INTERRES
   115   59   60 1    
   116   59  125 1    
   117   60   61 1    
   118   60   62 1    
   119   60  126 1    
   120   61  127 1    
   121   61  128 1    
   122   61  129 1    
   123   62   63 2    
   124   62   64 am   BACKBONE|DICT|INTERRES
   125   64   65 1    
   126   64  130 1    
   127   65   66 1    
   128   65   69 1    
   129   65  131 1    
   130   66   67 am   BACKBONE|DICT|INTERRES
   131   66   68 2    
   132   67  132 1    
   133   67  133 1    
   134   69   70 1    
   135   69  134 1    
   136   69  135 1    
   137   70   71 1    
   138   71  136 1    
   139   71  137 1    
@<TRIPOS>SUBSTRUCTURE
     1 UNK         1 GROUP             0       ****    0 ROOT    
