@<TRIPOS>MOLECULE
3R137
137   139    1
SMALL
USER_CHARGES


@<TRIPOS>ATOM
      1 CA         28.9306    0.6986   -1.1004 C.3       0 UNK        -0.2020 
      2 C          28.5513   -0.7258   -0.7261 C.2       0 UNK         0.4855 
      3 O          27.9534   -0.9420    0.3281 O.2       0 UNK        -0.5197 
      4 N          28.8915   -1.6892   -1.5937 N.am      1 UNK        -0.4892 
      5 CA         28.6554   -3.1360   -1.4465 C.3       1 UNK         0.0835 
      6 C6         29.4892   -3.8016   -0.3142 C.3       12 UNK        -0.0855 
      7 S7         31.2523   -3.3063   -0.2320 S.3       12 UNK        -0.2931 
      8 C8         31.9595   -3.8797   -1.8170 C.3       12 UNK         0.0378 
      9 C9         31.6244   -2.9596   -2.9875 C.ar      12 UNK        -0.0802 
     10 C10        31.8748   -1.5842   -2.9095 C.ar      12 UNK        -0.0944 
     11 C11        31.5179   -0.7331   -3.9597 C.ar      12 UNK        -0.0787 
     12 C12        30.9113   -1.2700   -5.0991 C.ar      12 UNK        -0.0862 
     13 C13        30.7042   -2.6470   -5.2130 C.ar      12 UNK        -0.0733 
     14 C14        31.0654   -3.4870   -4.1559 C.ar      12 UNK        -0.0832 
     15 C15        30.1191   -3.2263   -6.4932 C.3       12 UNK         0.0240 
     16 S16        28.5457   -4.1013   -6.2263 S.3       12 UNK        -0.2522 
     17 C17        27.4855   -2.7778   -5.5678 C.3       12 UNK        -0.0967 
     18 CA         26.9334   -1.8370   -6.6757 C.3       5 UNK         0.0660 
     19 N          25.4704   -1.7661   -6.6574 N.am      5 UNK        -0.4015 
     20 C          24.7102   -1.2150   -7.6131 C.2       4 UNK         0.4946 
     21 O          25.1578   -0.7258   -8.6497 O.2       4 UNK        -0.5353 
     22 CA         23.1944   -1.1777   -7.3511 C.3       4 UNK         0.0277 
     23 CB         22.5305   -2.4730   -7.8445 C.3       4 UNK        -0.1981 
     24 N          22.8664   -0.9636   -5.9379 N.am      4 UNK        -0.4209 
     25 C          23.1054    0.1776   -5.2754 C.2       3 UNK         0.4942 
     26 O          23.5903    1.1821   -5.7954 O.2       3 UNK        -0.5208 
     27 CA         22.8122    0.1731   -3.7641 C.3       3 UNK         0.0250 
     28 CB         21.3095    0.3598   -3.4994 C.3       3 UNK        -0.1990 
     29 N          23.2959   -1.0291   -3.0693 N.am      3 UNK        -0.4232 
     30 C          24.5729   -1.4342   -3.0639 C.2       2 UNK         0.4993 
     31 O          25.4711   -0.8613   -3.6904 O.2       2 UNK        -0.5286 
     32 CA         24.9144   -2.6990   -2.2643 C.3       2 UNK         0.0209 
     33 CB         24.3738   -3.9665   -2.9551 C.3       2 UNK        -0.1931 
     34 N          26.3689   -2.7342   -2.1756 N.am      2 UNK        -0.4546 
     35 C          27.1469   -3.4739   -1.3808 C.2       1 UNK         0.5154 
     36 O          26.7243   -4.3540   -0.6285 O.2       1 UNK        -0.5181 
     37 C          27.5551   -0.4313   -6.5804 C.2       5 UNK         0.5014 
     38 O          28.4541   -0.1071   -7.3566 O.2       5 UNK        -0.5248 
     39 N          27.0407    0.3823   -5.6478 N.am      6 UNK        -0.4434 
     40 CA         27.4133    1.7825   -5.4523 C.3       6 UNK         0.0363 
     41 CB         26.7601    2.3064   -4.1639 C.3       6 UNK        -0.1936 
     42 C          27.0412    2.6695   -6.6523 C.2       6 UNK         0.5081 
     43 O          27.8228    3.5504   -7.0083 O.2       6 UNK        -0.5248 
     44 N          25.8781    2.4094   -7.2694 N.am      7 UNK        -0.4718 
     45 CA         25.4242    3.0739   -8.4952 C.3       7 UNK         0.0273 
     46 CB         23.9523    2.7259   -8.7666 C.3       7 UNK        -0.1935 
     47 C          26.3004    2.7365   -9.7141 C.2       7 UNK         0.5018 
     48 O          26.6153    3.6360  -10.4944 O.2       7 UNK        -0.5186 
     49 N          26.6979    1.4614   -9.8444 N.am      8 UNK        -0.4240 
     50 CA         27.6573    0.9917  -10.8496 C.3       8 UNK         0.0235 
     51 CB         27.6416   -0.5452  -10.8944 C.3       8 UNK        -0.2000 
     52 C          29.0871    1.5054  -10.5989 C.2       8 UNK         0.4941 
     53 O          29.8278    1.7155  -11.5598 O.2       8 UNK        -0.5273 
     54 N          29.4381    1.6872   -9.3172 N.am      9 UNK        -0.4262 
     55 CA         30.7228    2.1501   -8.7828 C.3       9 UNK         0.0264 
     56 CB         31.0286    3.5937   -9.2331 C.3       9 UNK        -0.1955 
     57 C          31.8808    1.1728   -9.0572 C.2       9 UNK         0.5031 
     58 O          33.0351    1.5948   -9.1540 O.2       9 UNK        -0.5390 
     59 N          31.5690   -0.1279   -9.1401 N.am      10 UNK        -0.4204 
     60 CA         32.5222   -1.2181   -9.3740 C.3       10 UNK         0.0237 
     61 CB         31.7832   -2.3843  -10.0580 C.3       10 UNK        -0.1985 
     62 C          33.2405   -1.6404   -8.0755 C.2       10 UNK         0.4970 
     63 O          33.2736   -2.8268   -7.7466 O.2       10 UNK        -0.4914 
     64 N          33.7723   -0.6535   -7.3464 N.am      11 UNK        -0.4285 
     65 CA         34.3466   -0.8013   -5.9997 C.3       11 UNK         0.1007 
     66 C          35.7678   -1.4331   -5.9563 C.2       11 UNK         0.5703 
     67 N          36.4394   -1.6435   -7.0824 N.am      11 UNK        -0.7361 
     68 O          36.2700   -1.7438   -4.8788 O.2       11 UNK        -0.4986 
     69 C69        34.2978    0.5309   -5.1969 C.3       12 UNK        -0.0947 
     70 S70        32.7001    1.4152   -5.2998 S.3       12 UNK        -0.2240 
     71 C71        31.7919    0.7630   -3.8609 C.3       12 UNK         0.0194 
     72 H72        29.8084    1.0137   -0.5371 H         1 UNK         0.0906 
     73 H73        28.1127    1.3806   -0.8692 H         1 UNK         0.0906 
     74 H74        29.1518    0.7900   -2.1628 H         1 UNK         0.0906 
     75 H75        29.4295   -1.4366   -2.4119 H         1 UNK         0.3140 
     76 H76        28.9805   -3.5867   -2.3831 H         1 UNK         0.1085 
     77 H77        29.4429   -4.8885   -0.4027 H         1 UNK         0.0836 
     78 H78        29.0489   -3.5628    0.6557 H         1 UNK         0.0836 
     79 H79        33.0447   -3.9251   -1.7169 H         1 UNK         0.0731 
     80 H80        31.6254   -4.9009   -2.0073 H         1 UNK         0.0731 
     81 H81        32.3317   -1.1767   -2.0178 H         1 UNK         0.1312 
     82 H82        30.6388   -0.6145   -5.9149 H         1 UNK         0.1406 
     83 H83        30.8955   -4.5518   -4.2431 H         1 UNK         0.1631 
     84 H84        30.8382   -3.9236   -6.9248 H         1 UNK         0.0717 
     85 H85        29.9668   -2.4454   -7.2389 H         1 UNK         0.0717 
     86 H86        26.6708   -3.2832   -5.0505 H         1 UNK         0.0934 
     87 H87        28.0181   -2.2427   -4.7793 H         1 UNK         0.0934 
     88 H88        27.2067   -2.2331   -7.6563 H         1 UNK         0.0739 
     89 H89        25.0154   -2.0889   -5.8179 H         1 UNK         0.3093 
     90 H90        22.7809   -0.3446   -7.9233 H         1 UNK         0.0818 
     91 H91        22.7453   -2.6418   -8.9009 H         1 UNK         0.0819 
     92 H92        22.8849   -3.3470   -7.2966 H         1 UNK         0.0819 
     93 H93        21.4462   -2.4275   -7.7406 H         1 UNK         0.0819 
     94 H94        22.4562   -1.7372   -5.4350 H         1 UNK         0.3041 
     95 H95        23.3389    1.0277   -3.3336 H         1 UNK         0.0784 
     96 H96        20.9341    1.2546   -3.9984 H         1 UNK         0.0793 
     97 H97        20.7239   -0.4857   -3.8622 H         1 UNK         0.0793 
     98 H98        21.1060    0.4771   -2.4348 H         1 UNK         0.0793 
     99 H99        22.6133   -1.5525   -2.5394 H         1 UNK         0.3024 
    100 H100       24.4997   -2.6076   -1.2582 H         1 UNK         0.1171 
    101 H101       24.7504   -4.0721   -3.9720 H         1 UNK         0.0786 
    102 H102       24.6478   -4.8671   -2.4056 H         1 UNK         0.0786 
    103 H103       23.2849   -3.9493   -3.0115 H         1 UNK         0.0786 
    104 H104       26.7987   -1.9886   -2.7112 H         1 UNK         0.2977 
    105 H105       26.3336    0.0087   -5.0152 H         1 UNK         0.3127 
    106 H106       28.4981    1.8231   -5.3305 H         1 UNK         0.0770 
    107 H107       27.0615    3.3354   -3.9639 H         1 UNK         0.0814 
    108 H108       25.6715    2.2902   -4.2295 H         1 UNK         0.0814 
    109 H109       27.0480    1.7077   -3.3003 H         1 UNK         0.0814 
    110 H110       25.2515    1.7228   -6.8610 H         1 UNK         0.2983 
    111 H111       25.4917    4.1516   -8.3313 H         1 UNK         0.0947 
    112 H112       23.8135    1.6584   -8.9359 H         1 UNK         0.0806 
    113 H113       23.5858    3.2466   -9.6522 H         1 UNK         0.0806 
    114 H114       23.3150    3.0181   -7.9317 H         1 UNK         0.0806 
    115 H115       26.3210    0.7637   -9.2082 H         1 UNK         0.3000 
    116 H116       27.3373    1.3667  -11.8241 H         1 UNK         0.0850 
    117 H117       28.3365   -0.9225  -11.6459 H         1 UNK         0.0810 
    118 H118       26.6511   -0.9228  -11.1492 H         1 UNK         0.0810 
    119 H119       27.9265   -0.9812   -9.9363 H         1 UNK         0.0810 
    120 H120       28.7742    1.3822   -8.6112 H         1 UNK         0.3040 
    121 H121       30.5998    2.1667   -7.6987 H         1 UNK         0.0766 
    122 H122       31.9029    3.9877   -8.7135 H         1 UNK         0.0812 
    123 H123       30.1941    4.2597   -9.0127 H         1 UNK         0.0812 
    124 H124       31.2329    3.6508  -10.3025 H         1 UNK         0.0812 
    125 H125       30.6032   -0.3872   -8.9938 H         1 UNK         0.3205 
    126 H126       33.2937   -0.8689  -10.0637 H         1 UNK         0.0754 
    127 H127       32.4706   -3.1964  -10.2984 H         1 UNK         0.0769 
    128 H128       31.3233   -2.0659  -10.9939 H         1 UNK         0.0769 
    129 H129       30.9987   -2.7978   -9.4242 H         1 UNK         0.0769 
    130 H130       33.7104    0.2919   -7.7073 H         1 UNK         0.2981 
    131 H131       33.7159   -1.5155   -5.4695 H         1 UNK         0.0541 
    132 H132       37.3577   -2.0567   -7.0413 H         1 UNK         0.3459 
    133 H133       36.0343   -1.3960   -7.9706 H         1 UNK         0.3459 
    134 H134       35.0644    1.2150   -5.5649 H         1 UNK         0.0612 
    135 H135       34.5324    0.3514   -4.1461 H         1 UNK         0.0612 
    136 H136       30.8406    1.2907   -3.7901 H         1 UNK         0.0624 
    137 H137       32.3491    1.0016   -2.9537 H         1 UNK         0.0624 
@<TRIPOS>BOND
     1    1    2 1    
     2    1   72 1    
     3    1   73 1    
     4    1   74 1    
     5    2    3 2    
     6    2    4 am   BACKBONE|DICT|INTERRES
     7    4    5 1    
     8    4   75 1    
     9    5    6 1    
    10    5   35 1    
    11    5   76 1    
    12    6    7 1    
    13    6   77 1    
    14    6   78 1    
    15    7    8 1    
    16    8    9 1    
    17    8   79 1    
    18    8   80 1    
    19    9   10 ar   
    20    9   14 ar   
    21   10   11 ar   
    22   10   81 1    
    23   11   12 ar   
    24   11   71 1    
    25   12   13 ar   
    26   12   82 1    
    27   13   14 ar   
    28   13   15 1    
    29   14   83 1    
    30   15   16 1    
    31   15   84 1    
    32   15   85 1    
    33   16   17 1    
    34   17   18 1    
    35   17   86 1    
    36   17   87 1    
    37   18   19 1    
    38   18   37 1    
    39   18   88 1    
    40   19   20 am   BACKBONE|DICT|INTERRES
    41   19   89 1    
    42   20   21 2    
    43   20   22 1    
    44   22   23 1    
    45   22   24 1    
    46   22   90 1    
    47   23   91 1    
    48   23   92 1    
    49   23   93 1    
    50   24   25 am   BACKBONE|DICT|INTERRES
    51   24   94 1    
    52   25   26 2    
    53   25   27 1    
    54   27   28 1    
    55   27   29 1    
    56   27   95 1    
    57   28   96 1    
    58   28   97 1    
    59   28   98 1    
    60   29   30 am   BACKBONE|DICT|INTERRES
    61   29   99 1    
    62   30   31 2    
    63   30   32 1    
    64   32   33 1    
    65   32   34 1    
    66   32  100 1    
    67   33  101 1    
    68   33  102 1    
    69   33  103 1    
    70   34   35 am   BACKBONE|DICT|INTERRES
    71   34  104 1    
    72   35   36 2    
    73   37   38 2    
    74   37   39 am   BACKBONE|DICT|INTERRES
    75   39   40 1    
    76   39  105 1    
    77   40   41 1    
    78   40   42 1    
    79   40  106 1    
    80   41  107 1    
    81   41  108 1    
    82   41  109 1    
    83   42   43 2    
    84   42   44 am   BACKBONE|DICT|INTERRES
    85   44   45 1    
    86   44  110 1    
    87   45   46 1    
    88   45   47 1    
    89   45  111 1    
    90   46  112 1    
    91   46  113 1    
    92   46  114 1    
    93   47   48 2    
    94   47   49 am   BACKBONE|DICT|INTERRES
    95   49   50 1    
    96   49  115 1    
    97   50   51 1    
    98   50   52 1    
    99   50  116 1    
   100   51  117 1    
   101   51  118 1    
   102   51  119 1    
   103   52   53 2    
   104   52   54 am   BACKBONE|DICT|INTERRES
   105   54   55 1    
   106   54  120 1    
   107   55   56 1    
   108   55   57 1    
   109   55  121 1    
   110   56  122 1    
   111   56  123 1    
   112   56  124 1    
   113   57   58 2    
   114   57   59 am   BACKBONE|DICT|INTERRES
   115   59   60 1    
   116   59  125 1    
   117   60   61 1    
   118   60   62 1    
   119   60  126 1    
   120   61  127 1    
   121   61  128 1    
   122   61  129 1    
   123   62   63 2    
   124   62   64 am   BACKBONE|DICT|INTERRES
   125   64   65 1    
   126   64  130 1    
   127   65   66 1    
   128   65   69 1    
   129   65  131 1    
   130   66   67 am   BACKBONE|DICT|INTERRES
   131   66   68 2    
   132   67  132 1    
   133   67  133 1    
   134   69   70 1    
   135   69  134 1    
   136   69  135 1    
   137   70   71 1    
   138   71  136 1    
   139   71  137 1    
@<TRIPOS>SUBSTRUCTURE
     1 UNK         1 GROUP             0       ****    0 ROOT    
