@<TRIPOS>MOLECULE
3R137
137   139    1
SMALL
USER_CHARGES


@<TRIPOS>ATOM
      1 CA         29.3714    2.7918   -3.6136 C.3       0 UNK        -0.2020 
      2 C          29.3314    1.2725   -3.6828 C.2       0 UNK         0.4855 
      3 O          29.5481    0.7081   -4.7559 O.2       0 UNK        -0.5197 
      4 N          29.0506    0.6239   -2.5492 N.am      1 UNK        -0.4892 
      5 CA         28.8621   -0.8214   -2.4098 C.3       1 UNK         0.0835 
      6 C6         29.9164   -1.4576   -1.4696 C.3       12 UNK        -0.0855 
      7 S7         31.6113   -1.3585   -2.1378 S.3       12 UNK        -0.2931 
      8 C8         31.9340   -3.0884   -2.6066 C.3       12 UNK         0.0378 
      9 C9         31.2121   -3.4769   -3.8891 C.ar      12 UNK        -0.0802 
     10 C10        31.7478   -3.1074   -5.1249 C.ar      12 UNK        -0.0944 
     11 C11        31.1222   -3.4867   -6.3163 C.ar      12 UNK        -0.0787 
     12 C12        29.9561   -4.2545   -6.2621 C.ar      12 UNK        -0.0862 
     13 C13        29.3779   -4.5898   -5.0309 C.ar      12 UNK        -0.0733 
     14 C14        30.0232   -4.2120   -3.8477 C.ar      12 UNK        -0.0832 
     15 C15        28.0507   -5.3454   -4.9616 C.3       12 UNK         0.0240 
     16 S16        26.7734   -4.7458   -6.1286 S.3       12 UNK        -0.2522 
     17 C17        26.8850   -2.9357   -5.9419 C.3       12 UNK        -0.0967 
     18 CA         25.8477   -2.1852   -6.8090 C.3       5 UNK         0.0660 
     19 N          24.4928   -2.3328   -6.2734 N.am      5 UNK        -0.4015 
     20 C          23.3794   -2.4717   -7.0035 C.2       4 UNK         0.4946 
     21 O          23.3633   -2.4516   -8.2350 O.2       4 UNK        -0.5353 
     22 CA         22.0561   -2.6971   -6.2448 C.3       4 UNK         0.0277 
     23 CB         21.6635   -4.1832   -6.2958 C.3       4 UNK        -0.1981 
     24 N          22.1051   -2.2680   -4.8435 N.am      4 UNK        -0.4209 
     25 C          21.9715   -0.9987   -4.4344 C.2       3 UNK         0.4942 
     26 O          21.7300   -0.0575   -5.1902 O.2       3 UNK        -0.5208 
     27 CA         22.1832   -0.7249   -2.9314 C.3       3 UNK         0.0250 
     28 CB         20.8583   -0.8760   -2.1665 C.3       3 UNK        -0.1990 
     29 N          23.2177   -1.5515   -2.2885 N.am      3 UNK        -0.4232 
     30 C          24.4889   -1.6426   -2.7029 C.2       2 UNK         0.4993 
     31 O          24.8998   -1.1120   -3.7356 O.2       2 UNK        -0.5286 
     32 CA         25.4463   -2.5180   -1.8742 C.3       2 UNK         0.0209 
     33 CB         25.2052   -4.0058   -2.1821 C.3       2 UNK        -0.1931 
     34 N          26.8496   -2.2012   -2.1660 N.am      2 UNK        -0.4546 
     35 C          27.4470   -1.0453   -1.8473 C.2       1 UNK         0.5154 
     36 O          26.9308   -0.1868   -1.1243 O.2       1 UNK        -0.5181 
     37 C          26.2717   -0.7108   -6.9292 C.2       5 UNK         0.5014 
     38 O          27.1836   -0.4356   -7.7062 O.2       5 UNK        -0.5248 
     39 N          25.6483    0.1913   -6.1552 N.am      6 UNK        -0.4434 
     40 CA         26.0439    1.5855   -5.9104 C.3       6 UNK         0.0363 
     41 CB         24.9246    2.2916   -5.1300 C.3       6 UNK        -0.1936 
     42 C          26.4589    2.4213   -7.1355 C.2       6 UNK         0.5081 
     43 O          27.3510    3.2608   -7.0122 O.2       6 UNK        -0.5248 
     44 N          25.8496    2.1529   -8.2984 N.am      7 UNK        -0.4718 
     45 CA         26.1932    2.7535   -9.5918 C.3       7 UNK         0.0273 
     46 CB         25.1667    2.2995  -10.6421 C.3       7 UNK        -0.1935 
     47 C          27.6274    2.4529  -10.0769 C.2       7 UNK         0.5018 
     48 O          28.1614    3.2324  -10.8668 O.2       7 UNK        -0.5186 
     49 N          28.2321    1.3534   -9.6008 N.am      8 UNK        -0.4240 
     50 CA         29.6244    0.9834   -9.8735 C.3       8 UNK         0.0235 
     51 CB         29.8188   -0.5161   -9.5959 C.3       8 UNK        -0.2000 
     52 C          30.6423    1.8149   -9.0704 C.2       8 UNK         0.4941 
     53 O          31.8131    1.8348   -9.4513 O.2       8 UNK        -0.5273 
     54 N          30.1864    2.4837   -7.9978 N.am      9 UNK        -0.4262 
     55 CA         30.9310    3.4171   -7.1459 C.3       9 UNK         0.0264 
     56 CB         31.2144    4.7247   -7.9161 C.3       9 UNK        -0.1955 
     57 C          32.1972    2.8052   -6.5121 C.2       9 UNK         0.5031 
     58 O          33.2803    3.3800   -6.6382 O.2       9 UNK        -0.5390 
     59 N          32.0215    1.6641   -5.8270 N.am      10 UNK        -0.4204 
     60 CA         33.0301    0.9040   -5.0779 C.3       10 UNK         0.0237 
     61 CB         33.4925    1.6890   -3.8323 C.3       10 UNK        -0.1985 
     62 C          34.2020    0.4419   -5.9636 C.2       10 UNK         0.4970 
     63 O          35.3044    0.9856   -5.8764 O.2       10 UNK        -0.4914 
     64 N          33.9236   -0.5589   -6.8071 N.am      11 UNK        -0.4285 
     65 CA         34.8620   -1.1745   -7.7615 C.3       11 UNK         0.1007 
     66 C          36.1302   -1.8513   -7.1548 C.2       11 UNK         0.5703 
     67 N          36.1900   -2.1220   -5.8561 N.am      11 UNK        -0.7361 
     68 O          37.0816   -2.1284   -7.8816 O.2       11 UNK        -0.4986 
     69 C69        34.1174   -2.1197   -8.7455 C.3       12 UNK        -0.0947 
     70 S70        33.3737   -3.5850   -7.9409 S.3       12 UNK        -0.2240 
     71 C71        31.6698   -3.0155   -7.6559 C.3       12 UNK         0.0194 
     72 H72        28.7318    3.2202   -4.3851 H         1 UNK         0.0906 
     73 H73        29.0283    3.1646   -2.6487 H         1 UNK         0.0906 
     74 H74        30.3880    3.1498   -3.7715 H         1 UNK         0.0906 
     75 H75        28.8088    1.1488   -1.7191 H         1 UNK         0.3140 
     76 H76        28.9180   -1.3043   -3.3887 H         1 UNK         0.1085 
     77 H77        29.9103   -0.9592   -0.4981 H         1 UNK         0.0836 
     78 H78        29.6749   -2.5024   -1.2667 H         1 UNK         0.0836 
     79 H79        33.0085   -3.2148   -2.7478 H         1 UNK         0.0731 
     80 H80        31.6606   -3.7542   -1.7865 H         1 UNK         0.0731 
     81 H81        32.6577   -2.5261   -5.1555 H         1 UNK         0.1312 
     82 H82        29.4648   -4.5470   -7.1800 H         1 UNK         0.1406 
     83 H83        29.6021   -4.4914   -2.8916 H         1 UNK         0.1631 
     84 H84        28.2375   -6.4013   -5.1605 H         1 UNK         0.0717 
     85 H85        27.6361   -5.2927   -3.9539 H         1 UNK         0.0717 
     86 H86        26.7786   -2.6734   -4.8903 H         1 UNK         0.0934 
     87 H87        27.8931   -2.6306   -6.2253 H         1 UNK         0.0934 
     88 H88        25.8851   -2.6002   -7.8189 H         1 UNK         0.0739 
     89 H89        24.4146   -2.2712   -5.2653 H         1 UNK         0.3093 
     90 H90        21.2824   -2.1241   -6.7609 H         1 UNK         0.0818 
     91 H91        20.6971   -4.3556   -5.8215 H         1 UNK         0.0819 
     92 H92        21.5820   -4.5301   -7.3270 H         1 UNK         0.0819 
     93 H93        22.4011   -4.8144   -5.7981 H         1 UNK         0.0819 
     94 H94        22.2856   -2.9800   -4.1505 H         1 UNK         0.3041 
     95 H95        22.5079    0.3141   -2.8426 H         1 UNK         0.0784 
     96 H96        20.0778   -0.2561   -2.6104 H         1 UNK         0.0793 
     97 H97        20.5006   -1.9064   -2.1761 H         1 UNK         0.0793 
     98 H98        20.9617   -0.5651   -1.1267 H         1 UNK         0.0793 
     99 H99        22.9450   -2.0353   -1.4445 H         1 UNK         0.3024 
    100 H100       25.2607   -2.3303   -0.8140 H         1 UNK         0.1171 
    101 H101       25.8811   -4.6438   -1.6122 H         1 UNK         0.0786 
    102 H102       24.1892   -4.3036   -1.9196 H         1 UNK         0.0786 
    103 H103       25.3456   -4.2301   -3.2404 H         1 UNK         0.0786 
    104 H104       27.3414   -2.8573   -2.7521 H         1 UNK         0.2977 
    105 H105       24.9870   -0.1824   -5.4825 H         1 UNK         0.3127 
    106 H106       26.9185    1.5365   -5.2624 H         1 UNK         0.0770 
    107 H107       23.9897    2.3040   -5.6918 H         1 UNK         0.0814 
    108 H108       25.1903    3.3267   -4.9102 H         1 UNK         0.0814 
    109 H109       24.7350    1.7979   -4.1763 H         1 UNK         0.0814 
    110 H110       25.1482    1.4263   -8.3047 H         1 UNK         0.2983 
    111 H111       26.1151    3.8372   -9.4810 H         1 UNK         0.0947 
    112 H112       25.3748    2.7515  -11.6130 H         1 UNK         0.0806 
    113 H113       24.1545    2.5919  -10.3618 H         1 UNK         0.0806 
    114 H114       25.1802    1.2171  -10.7770 H         1 UNK         0.0806 
    115 H115       27.7301    0.7574   -8.9421 H         1 UNK         0.3000 
    116 H116       29.8238    1.1594  -10.9328 H         1 UNK         0.0850 
    117 H117       29.6747   -0.7503   -8.5407 H         1 UNK         0.0810 
    118 H118       30.8252   -0.8353   -9.8692 H         1 UNK         0.0810 
    119 H119       29.1187   -1.1218  -10.1714 H         1 UNK         0.0810 
    120 H120       29.2002    2.4019   -7.7766 H         1 UNK         0.3040 
    121 H121       30.2652    3.6685   -6.3199 H         1 UNK         0.0766 
    122 H122       30.2946    5.1608   -8.3062 H         1 UNK         0.0812 
    123 H123       31.8903    4.5607   -8.7562 H         1 UNK         0.0812 
    124 H124       31.6758    5.4696   -7.2667 H         1 UNK         0.0812 
    125 H125       31.0761    1.2911   -5.7578 H         1 UNK         0.3205 
    126 H126       32.5274    0.0045   -4.7194 H         1 UNK         0.0754 
    127 H127       34.2025    1.1035   -3.2468 H         1 UNK         0.0769 
    128 H128       32.6518    1.9213   -3.1787 H         1 UNK         0.0769 
    129 H129       33.9831    2.6263   -4.0966 H         1 UNK         0.0769 
    130 H130       32.9899   -0.9362   -6.8153 H         1 UNK         0.2981 
    131 H131       35.2482   -0.3472   -8.3597 H         1 UNK         0.0541 
    132 H132       35.4225   -1.8905   -5.2484 H         1 UNK         0.3459 
    133 H133       37.0188   -2.5558   -5.4818 H         1 UNK         0.3459 
    134 H134       34.8031   -2.4739   -9.5172 H         1 UNK         0.0612 
    135 H135       33.3442   -1.5680   -9.2826 H         1 UNK         0.0612 
    136 H136       31.6266   -1.9272   -7.6719 H         1 UNK         0.0624 
    137 H137       31.0444   -3.3586   -8.4816 H         1 UNK         0.0624 
@<TRIPOS>BOND
     1    1    2 1    
     2    1   72 1    
     3    1   73 1    
     4    1   74 1    
     5    2    3 2    
     6    2    4 am   BACKBONE|DICT|INTERRES
     7    4    5 1    
     8    4   75 1    
     9    5    6 1    
    10    5   35 1    
    11    5   76 1    
    12    6    7 1    
    13    6   77 1    
    14    6   78 1    
    15    7    8 1    
    16    8    9 1    
    17    8   79 1    
    18    8   80 1    
    19    9   10 ar   
    20    9   14 ar   
    21   10   11 ar   
    22   10   81 1    
    23   11   12 ar   
    24   11   71 1    
    25   12   13 ar   
    26   12   82 1    
    27   13   14 ar   
    28   13   15 1    
    29   14   83 1    
    30   15   16 1    
    31   15   84 1    
    32   15   85 1    
    33   16   17 1    
    34   17   18 1    
    35   17   86 1    
    36   17   87 1    
    37   18   19 1    
    38   18   37 1    
    39   18   88 1    
    40   19   20 am   BACKBONE|DICT|INTERRES
    41   19   89 1    
    42   20   21 2    
    43   20   22 1    
    44   22   23 1    
    45   22   24 1    
    46   22   90 1    
    47   23   91 1    
    48   23   92 1    
    49   23   93 1    
    50   24   25 am   BACKBONE|DICT|INTERRES
    51   24   94 1    
    52   25   26 2    
    53   25   27 1    
    54   27   28 1    
    55   27   29 1    
    56   27   95 1    
    57   28   96 1    
    58   28   97 1    
    59   28   98 1    
    60   29   30 am   BACKBONE|DICT|INTERRES
    61   29   99 1    
    62   30   31 2    
    63   30   32 1    
    64   32   33 1    
    65   32   34 1    
    66   32  100 1    
    67   33  101 1    
    68   33  102 1    
    69   33  103 1    
    70   34   35 am   BACKBONE|DICT|INTERRES
    71   34  104 1    
    72   35   36 2    
    73   37   38 2    
    74   37   39 am   BACKBONE|DICT|INTERRES
    75   39   40 1    
    76   39  105 1    
    77   40   41 1    
    78   40   42 1    
    79   40  106 1    
    80   41  107 1    
    81   41  108 1    
    82   41  109 1    
    83   42   43 2    
    84   42   44 am   BACKBONE|DICT|INTERRES
    85   44   45 1    
    86   44  110 1    
    87   45   46 1    
    88   45   47 1    
    89   45  111 1    
    90   46  112 1    
    91   46  113 1    
    92   46  114 1    
    93   47   48 2    
    94   47   49 am   BACKBONE|DICT|INTERRES
    95   49   50 1    
    96   49  115 1    
    97   50   51 1    
    98   50   52 1    
    99   50  116 1    
   100   51  117 1    
   101   51  118 1    
   102   51  119 1    
   103   52   53 2    
   104   52   54 am   BACKBONE|DICT|INTERRES
   105   54   55 1    
   106   54  120 1    
   107   55   56 1    
   108   55   57 1    
   109   55  121 1    
   110   56  122 1    
   111   56  123 1    
   112   56  124 1    
   113   57   58 2    
   114   57   59 am   BACKBONE|DICT|INTERRES
   115   59   60 1    
   116   59  125 1    
   117   60   61 1    
   118   60   62 1    
   119   60  126 1    
   120   61  127 1    
   121   61  128 1    
   122   61  129 1    
   123   62   63 2    
   124   62   64 am   BACKBONE|DICT|INTERRES
   125   64   65 1    
   126   64  130 1    
   127   65   66 1    
   128   65   69 1    
   129   65  131 1    
   130   66   67 am   BACKBONE|DICT|INTERRES
   131   66   68 2    
   132   67  132 1    
   133   67  133 1    
   134   69   70 1    
   135   69  134 1    
   136   69  135 1    
   137   70   71 1    
   138   71  136 1    
   139   71  137 1    
@<TRIPOS>SUBSTRUCTURE
     1 UNK         1 GROUP             0       ****    0 ROOT    
