@<TRIPOS>MOLECULE
3R137
137   139    1
SMALL
USER_CHARGES


@<TRIPOS>ATOM
      1 CA         25.5028   -6.0136   -5.7152 C.3       0 UNK        -0.2020 
      2 C          25.7074   -5.3930   -4.3421 C.2       0 UNK         0.4855 
      3 O          24.7545   -4.8745   -3.7593 O.2       0 UNK        -0.5197 
      4 N          26.9433   -5.4287   -3.8236 N.am      1 UNK        -0.4892 
      5 CA         27.3292   -4.8596   -2.5271 C.3       1 UNK         0.0835 
      6 C6         28.7963   -5.2006   -2.1726 C.3       12 UNK        -0.0855 
      7 S7         29.1551   -4.9116   -0.4062 S.3       12 UNK        -0.2931 
      8 C8         30.9544   -4.6258   -0.4295 C.3       12 UNK         0.0378 
      9 C9         31.3493   -3.3666   -1.1924 C.ar      12 UNK        -0.0802 
     10 C10        32.1857   -3.4580   -2.3085 C.ar      12 UNK        -0.0944 
     11 C11        32.5845   -2.3077   -2.9954 C.ar      12 UNK        -0.0787 
     12 C12        32.1423   -1.0566   -2.5563 C.ar      12 UNK        -0.0862 
     13 C13        31.3030   -0.9483   -1.4414 C.ar      12 UNK        -0.0733 
     14 C14        30.9125   -2.1089   -0.7641 C.ar      12 UNK        -0.0832 
     15 C15        30.8430    0.4157   -0.9324 C.3       12 UNK         0.0240 
     16 S16        30.2582    1.5406   -2.2450 S.3       12 UNK        -0.2522 
     17 C17        28.8229    0.6318   -2.9033 C.3       12 UNK        -0.0967 
     18 CA         28.7064    0.7660   -4.4431 C.3       5 UNK         0.0660 
     19 N          28.0684   -0.4080   -5.0406 N.am      5 UNK        -0.4015 
     20 C          27.9160   -0.6368   -6.3524 C.2       4 UNK         0.4946 
     21 O          28.3909    0.0712   -7.2410 O.2       4 UNK        -0.5353 
     22 CA         27.0283   -1.8328   -6.7352 C.3       4 UNK         0.0277 
     23 CB         27.8328   -3.1411   -6.7693 C.3       4 UNK        -0.1981 
     24 N          25.8830   -1.9717   -5.8339 N.am      4 UNK        -0.4209 
     25 C          24.8344   -1.1360   -5.8228 C.2       3 UNK         0.4942 
     26 O          24.6981   -0.2008   -6.6108 O.2       3 UNK        -0.5208 
     27 CA         23.7852   -1.3518   -4.7204 C.3       3 UNK         0.0250 
     28 CB         22.7480   -2.3999   -5.1527 C.3       3 UNK        -0.1990 
     29 N          24.3911   -1.7400   -3.4432 N.am      3 UNK        -0.4232 
     30 C          25.1318   -0.9105   -2.6915 C.2       2 UNK         0.4993 
     31 O          25.3426    0.2654   -2.9846 O.2       2 UNK        -0.5286 
     32 CA         25.7975   -1.4907   -1.4312 C.3       2 UNK         0.0209 
     33 CB         24.8643   -1.3537   -0.2183 C.3       2 UNK        -0.1931 
     34 N          26.2186   -2.8875   -1.5704 N.am      2 UNK        -0.4546 
     35 C          27.0716   -3.3396   -2.4998 C.2       1 UNK         0.5154 
     36 O          27.6065   -2.6189   -3.3446 O.2       1 UNK        -0.5181 
     37 C          27.9913    2.0735   -4.8460 C.2       5 UNK         0.5014 
     38 O          28.6513    3.0213   -5.2722 O.2       5 UNK        -0.5248 
     39 N          26.6530    2.0896   -4.7382 N.am      6 UNK        -0.4434 
     40 CA         25.7918    3.2025   -5.1489 C.3       6 UNK         0.0363 
     41 CB         24.3511    2.9416   -4.6823 C.3       6 UNK        -0.1936 
     42 C          25.8288    3.4755   -6.6625 C.2       6 UNK         0.5081 
     43 O          25.7850    4.6390   -7.0635 O.2       6 UNK        -0.5248 
     44 N          25.9295    2.4126   -7.4745 N.am      7 UNK        -0.4718 
     45 CA         26.1105    2.4957   -8.9276 C.3       7 UNK         0.0273 
     46 CB         25.8618    1.1155   -9.5563 C.3       7 UNK        -0.1935 
     47 C          27.4926    3.0354   -9.3406 C.2       7 UNK         0.5018 
     48 O          27.6182    3.5678  -10.4440 O.2       7 UNK        -0.5186 
     49 N          28.4983    2.8791   -8.4661 N.am      8 UNK        -0.4240 
     50 CA         29.8857    3.3640   -8.5317 C.3       8 UNK         0.0235 
     51 CB         29.9380    4.9018   -8.6082 C.3       8 UNK        -0.2000 
     52 C          30.7529    2.7253   -9.6302 C.2       8 UNK         0.4941 
     53 O          31.9213    2.4322   -9.3794 O.2       8 UNK        -0.5273 
     54 N          30.1827    2.5026  -10.8193 N.am      9 UNK        -0.4262 
     55 CA         30.8233    1.8028  -11.9340 C.3       9 UNK         0.0264 
     56 CB         30.0225    2.0592  -13.2207 C.3       9 UNK        -0.1955 
     57 C          30.9661    0.2924  -11.6785 C.2       9 UNK         0.5031 
     58 O          31.9157   -0.3159  -12.1738 O.2       9 UNK        -0.5390 
     59 N          30.0203   -0.2838  -10.9232 N.am      10 UNK        -0.4204 
     60 CA         29.9847   -1.7061  -10.5836 C.3       10 UNK         0.0237 
     61 CB         28.5400   -2.1152  -10.2653 C.3       10 UNK        -0.1985 
     62 C          30.9397   -2.0765   -9.4354 C.2       10 UNK         0.4970 
     63 O          31.4895   -3.1780   -9.4603 O.2       10 UNK        -0.4914 
     64 N          31.1389   -1.1694   -8.4703 N.am      11 UNK        -0.4285 
     65 CA         32.1022   -1.3216   -7.3745 C.3       11 UNK         0.1007 
     66 C          32.5615    0.0700   -6.8801 C.2       11 UNK         0.5703 
     67 N          33.8632    0.3151   -6.8107 N.am      11 UNK        -0.7361 
     68 O          31.7454    0.9154   -6.5257 O.2       11 UNK        -0.4986 
     69 C69        31.5581   -2.2048   -6.2132 C.3       12 UNK        -0.0947 
     70 S70        32.8218   -3.3498   -5.5717 S.3       12 UNK        -0.2240 
     71 C71        33.5326   -2.4143   -4.1812 C.3       12 UNK         0.0194 
     72 H72        25.0835   -5.2778   -6.4009 H         1 UNK         0.0906 
     73 H73        26.4359   -6.3825   -6.1407 H         1 UNK         0.0906 
     74 H74        24.8068   -6.8492   -5.6470 H         1 UNK         0.0906 
     75 H75        27.6913   -5.8491   -4.3564 H         1 UNK         0.3140 
     76 H76        26.6851   -5.3333   -1.7827 H         1 UNK         0.1085 
     77 H77        28.9969   -6.2541   -2.3743 H         1 UNK         0.0836 
     78 H78        29.4869   -4.6355   -2.8020 H         1 UNK         0.0836 
     79 H79        31.4452   -5.5063   -0.8474 H         1 UNK         0.0731 
     80 H80        31.3088   -4.5391    0.5986 H         1 UNK         0.0731 
     81 H81        32.5382   -4.4245   -2.6422 H         1 UNK         0.1312 
     82 H82        32.4587   -0.1629   -3.0770 H         1 UNK         0.1406 
     83 H83        30.2729   -2.0387    0.1056 H         1 UNK         0.1631 
     84 H84        31.6766    0.8905   -0.4135 H         1 UNK         0.0717 
     85 H85        30.0453    0.3042   -0.1962 H         1 UNK         0.0717 
     86 H86        28.9363   -0.4187   -2.6339 H         1 UNK         0.0934 
     87 H87        27.9202    0.9693   -2.3911 H         1 UNK         0.0934 
     88 H88        29.7121    0.7996   -4.8655 H         1 UNK         0.0739 
     89 H89        27.7213   -1.1120   -4.3927 H         1 UNK         0.3093 
     90 H90        26.6352   -1.6503   -7.7365 H         1 UNK         0.0818 
     91 H91        28.2625   -3.3853   -5.7976 H         1 UNK         0.0819 
     92 H92        27.2132   -3.9788   -7.0866 H         1 UNK         0.0819 
     93 H93        28.6554   -3.0700   -7.4795 H         1 UNK         0.0819 
     94 H94        25.9498   -2.6728   -5.1097 H         1 UNK         0.3041 
     95 H95        23.2632   -0.4041   -4.5710 H         1 UNK         0.0784 
     96 H96        22.2463   -2.0925   -6.0713 H         1 UNK         0.0793 
     97 H97        23.2041   -3.3717   -5.3427 H         1 UNK         0.0793 
     98 H98        21.9778   -2.5335   -4.3929 H         1 UNK         0.0793 
     99 H99        24.3022   -2.7107   -3.1662 H         1 UNK         0.3024 
    100 H100       26.6946   -0.8989   -1.2388 H         1 UNK         0.1171 
    101 H101       25.3597   -1.6655    0.7015 H         1 UNK         0.0786 
    102 H102       24.5538   -0.3168   -0.0806 H         1 UNK         0.0786 
    103 H103       23.9598   -1.9523   -0.3336 H         1 UNK         0.0786 
    104 H104       25.8104   -3.5476   -0.9240 H         1 UNK         0.2977 
    105 H105       26.1866    1.2985   -4.2981 H         1 UNK         0.3127 
    106 H106       26.1546    4.1007   -4.6449 H         1 UNK         0.0770 
    107 H107       23.9390    2.0382   -5.1327 H         1 UNK         0.0814 
    108 H108       23.6962    3.7704   -4.9543 H         1 UNK         0.0814 
    109 H109       24.2988    2.8291   -3.5993 H         1 UNK         0.0814 
    110 H110       25.8732    1.4832   -7.0711 H         1 UNK         0.2983 
    111 H111       25.3629    3.1882   -9.3205 H         1 UNK         0.0947 
    112 H112       25.9492    1.1583  -10.6428 H         1 UNK         0.0806 
    113 H113       24.8610    0.7497   -9.3259 H         1 UNK         0.0806 
    114 H114       26.5771    0.3755   -9.2001 H         1 UNK         0.0806 
    115 H115       28.2850    2.3513   -7.6271 H         1 UNK         0.3000 
    116 H116       30.3329    3.0704   -7.5803 H         1 UNK         0.0850 
    117 H117       30.9673    5.2584   -8.5531 H         1 UNK         0.0810 
    118 H118       29.3926    5.3551   -7.7802 H         1 UNK         0.0810 
    119 H119       29.5128    5.2804   -9.5382 H         1 UNK         0.0810 
    120 H120       29.2270    2.8306  -10.9463 H         1 UNK         0.3040 
    121 H121       31.8265    2.2140  -12.0665 H         1 UNK         0.0766 
    122 H122       29.9749    3.1234  -13.4522 H         1 UNK         0.0812 
    123 H123       29.0000    1.6872  -13.1427 H         1 UNK         0.0812 
    124 H124       30.4866    1.5632  -14.0745 H         1 UNK         0.0812 
    125 H125       29.2820    0.2972  -10.5550 H         1 UNK         0.3205 
    126 H126       30.3006   -2.2767  -11.4600 H         1 UNK         0.0754 
    127 H127       28.4809   -3.1659   -9.9782 H         1 UNK         0.0769 
    128 H128       27.8909   -1.9799  -11.1307 H         1 UNK         0.0769 
    129 H129       28.1330   -1.5230   -9.4490 H         1 UNK         0.0769 
    130 H130       30.6422   -0.2884   -8.4845 H         1 UNK         0.2981 
    131 H131       32.9777   -1.8100   -7.8086 H         1 UNK         0.0541 
    132 H132       34.5425   -0.3732   -7.0938 H         1 UNK         0.3459 
    133 H133       34.1695    1.2187   -6.4869 H         1 UNK         0.3459 
    134 H134       30.7481   -2.8400   -6.5676 H         1 UNK         0.0612 
    135 H135       31.1248   -1.6147   -5.4029 H         1 UNK         0.0612 
    136 H136       34.4431   -2.9187   -3.8553 H         1 UNK         0.0624 
    137 H137       33.8403   -1.4275   -4.5280 H         1 UNK         0.0624 
@<TRIPOS>BOND
     1    1    2 1    
     2    1   72 1    
     3    1   73 1    
     4    1   74 1    
     5    2    3 2    
     6    2    4 am   BACKBONE|DICT|INTERRES
     7    4    5 1    
     8    4   75 1    
     9    5    6 1    
    10    5   35 1    
    11    5   76 1    
    12    6    7 1    
    13    6   77 1    
    14    6   78 1    
    15    7    8 1    
    16    8    9 1    
    17    8   79 1    
    18    8   80 1    
    19    9   10 ar   
    20    9   14 ar   
    21   10   11 ar   
    22   10   81 1    
    23   11   12 ar   
    24   11   71 1    
    25   12   13 ar   
    26   12   82 1    
    27   13   14 ar   
    28   13   15 1    
    29   14   83 1    
    30   15   16 1    
    31   15   84 1    
    32   15   85 1    
    33   16   17 1    
    34   17   18 1    
    35   17   86 1    
    36   17   87 1    
    37   18   19 1    
    38   18   37 1    
    39   18   88 1    
    40   19   20 am   BACKBONE|DICT|INTERRES
    41   19   89 1    
    42   20   21 2    
    43   20   22 1    
    44   22   23 1    
    45   22   24 1    
    46   22   90 1    
    47   23   91 1    
    48   23   92 1    
    49   23   93 1    
    50   24   25 am   BACKBONE|DICT|INTERRES
    51   24   94 1    
    52   25   26 2    
    53   25   27 1    
    54   27   28 1    
    55   27   29 1    
    56   27   95 1    
    57   28   96 1    
    58   28   97 1    
    59   28   98 1    
    60   29   30 am   BACKBONE|DICT|INTERRES
    61   29   99 1    
    62   30   31 2    
    63   30   32 1    
    64   32   33 1    
    65   32   34 1    
    66   32  100 1    
    67   33  101 1    
    68   33  102 1    
    69   33  103 1    
    70   34   35 am   BACKBONE|DICT|INTERRES
    71   34  104 1    
    72   35   36 2    
    73   37   38 2    
    74   37   39 am   BACKBONE|DICT|INTERRES
    75   39   40 1    
    76   39  105 1    
    77   40   41 1    
    78   40   42 1    
    79   40  106 1    
    80   41  107 1    
    81   41  108 1    
    82   41  109 1    
    83   42   43 2    
    84   42   44 am   BACKBONE|DICT|INTERRES
    85   44   45 1    
    86   44  110 1    
    87   45   46 1    
    88   45   47 1    
    89   45  111 1    
    90   46  112 1    
    91   46  113 1    
    92   46  114 1    
    93   47   48 2    
    94   47   49 am   BACKBONE|DICT|INTERRES
    95   49   50 1    
    96   49  115 1    
    97   50   51 1    
    98   50   52 1    
    99   50  116 1    
   100   51  117 1    
   101   51  118 1    
   102   51  119 1    
   103   52   53 2    
   104   52   54 am   BACKBONE|DICT|INTERRES
   105   54   55 1    
   106   54  120 1    
   107   55   56 1    
   108   55   57 1    
   109   55  121 1    
   110   56  122 1    
   111   56  123 1    
   112   56  124 1    
   113   57   58 2    
   114   57   59 am   BACKBONE|DICT|INTERRES
   115   59   60 1    
   116   59  125 1    
   117   60   61 1    
   118   60   62 1    
   119   60  126 1    
   120   61  127 1    
   121   61  128 1    
   122   61  129 1    
   123   62   63 2    
   124   62   64 am   BACKBONE|DICT|INTERRES
   125   64   65 1    
   126   64  130 1    
   127   65   66 1    
   128   65   69 1    
   129   65  131 1    
   130   66   67 am   BACKBONE|DICT|INTERRES
   131   66   68 2    
   132   67  132 1    
   133   67  133 1    
   134   69   70 1    
   135   69  134 1    
   136   69  135 1    
   137   70   71 1    
   138   71  136 1    
   139   71  137 1    
@<TRIPOS>SUBSTRUCTURE
     1 UNK         1 GROUP             0       ****    0 ROOT    
