@<TRIPOS>MOLECULE
3R137
137   139    1
SMALL
USER_CHARGES


@<TRIPOS>ATOM
      1 CA         26.1067   -8.0489   -2.0782 C.3       0 UNK        -0.2020 
      2 C          26.4710   -6.5729   -2.1240 C.2       0 UNK         0.4855 
      3 O          26.9671   -6.0314   -1.1349 O.2       0 UNK        -0.5197 
      4 N          26.2211   -5.9098   -3.2600 N.am      1 UNK        -0.4892 
      5 CA         26.5148   -4.4922   -3.5078 C.3       1 UNK         0.0835 
      6 C6         26.6739   -4.2030   -5.0241 C.3       12 UNK        -0.0855 
      7 S7         28.1038   -5.0748   -5.7525 S.3       12 UNK        -0.2931 
      8 C8         29.1484   -3.6953   -6.3267 C.3       12 UNK         0.0378 
      9 C9         30.1070   -3.1781   -5.2624 C.ar      12 UNK        -0.0802 
     10 C10        31.4857   -3.2604   -5.4710 C.ar      12 UNK        -0.0944 
     11 C11        32.3773   -2.6822   -4.5654 C.ar      12 UNK        -0.0787 
     12 C12        31.8875   -2.0699   -3.4088 C.ar      12 UNK        -0.0862 
     13 C13        30.5120   -2.0004   -3.1717 C.ar      12 UNK        -0.0733 
     14 C14        29.6296   -2.5503   -4.1080 C.ar      12 UNK        -0.0832 
     15 C15        29.9976   -1.3325   -1.9000 C.3       12 UNK         0.0240 
     16 S16        28.5684   -0.2340   -2.1711 S.3       12 UNK        -0.2522 
     17 C17        29.2519    1.0222   -3.3094 C.3       12 UNK        -0.0967 
     18 CA         28.7109    0.8939   -4.7605 C.3       5 UNK         0.0660 
     19 N          27.2429    0.7592   -4.7750 N.am      5 UNK        -0.4015 
     20 C          26.4609    0.3284   -5.7731 C.2       4 UNK         0.4946 
     21 O          26.8904    0.0751   -6.9009 O.2       4 UNK        -0.5353 
     22 CA         24.9503    0.1924   -5.4999 C.3       4 UNK         0.0277 
     23 CB         24.3303   -0.9656   -6.3036 C.3       4 UNK        -0.1981 
     24 N          24.6112    0.0348   -4.0790 N.am      4 UNK        -0.4209 
     25 C          24.4392    1.0522   -3.2199 C.2       3 UNK         0.4942 
     26 O          24.6642    2.2239   -3.5237 O.2       3 UNK        -0.5208 
     27 CA         23.9334    0.7473   -1.7973 C.3       3 UNK         0.0250 
     28 CB         22.5534    1.3902   -1.5719 C.3       3 UNK        -0.1990 
     29 N          23.8270   -0.6864   -1.5226 N.am      3 UNK        -0.4232 
     30 C          24.6836   -1.3942   -0.7760 C.2       2 UNK         0.4993 
     31 O          25.6575   -0.9113   -0.1983 O.2       2 UNK        -0.5286 
     32 CA         24.4226   -2.9073   -0.6542 C.3       2 UNK         0.0209 
     33 CB         22.9506   -3.3148   -0.8963 C.3       2 UNK        -0.1931 
     34 N          25.3226   -3.6780   -1.5189 N.am      2 UNK        -0.4546 
     35 C          25.4596   -3.5752   -2.8482 C.2       1 UNK         0.5154 
     36 O          24.7857   -2.8100   -3.5416 O.2       1 UNK        -0.5181 
     37 C          29.2596    2.0221   -5.6738 C.2       5 UNK         0.5014 
     38 O          30.2816    2.6345   -5.3571 O.2       5 UNK        -0.5248 
     39 N          28.5765    2.2759   -6.7903 N.am      6 UNK        -0.4434 
     40 CA         28.9308    3.2174   -7.8453 C.3       6 UNK         0.0363 
     41 CB         28.5756    4.6593   -7.4406 C.3       6 UNK        -0.1936 
     42 C          28.2245    2.8082   -9.1431 C.2       6 UNK         0.5081 
     43 O          28.8399    2.8402  -10.2081 O.2       6 UNK        -0.5248 
     44 N          26.9450    2.4220   -9.0267 N.am      7 UNK        -0.4718 
     45 CA         26.1016    1.9783  -10.1363 C.3       7 UNK         0.0273 
     46 CB         24.6254    2.0447   -9.7100 C.3       7 UNK        -0.1935 
     47 C          26.4544    0.5692  -10.6387 C.2       7 UNK         0.5018 
     48 O          26.5176    0.3659  -11.8519 O.2       7 UNK        -0.5186 
     49 N          26.6585   -0.3779   -9.7113 N.am      8 UNK        -0.4240 
     50 CA         26.9759   -1.7731  -10.0299 C.3       8 UNK         0.0235 
     51 CB         26.4611   -2.6930   -8.9106 C.3       8 UNK        -0.2000 
     52 C          28.4741   -1.9877  -10.2996 C.2       8 UNK         0.4941 
     53 O          28.8184   -2.8226  -11.1371 O.2       8 UNK        -0.5273 
     54 N          29.3327   -1.2192   -9.6204 N.am      9 UNK        -0.4262 
     55 CA         30.7741   -1.1508   -9.8415 C.3       9 UNK         0.0264 
     56 CB         31.4869   -2.3390   -9.1751 C.3       9 UNK        -0.1955 
     57 C          31.2601    0.1696   -9.2449 C.2       9 UNK         0.5031 
     58 O          30.7947    0.5425   -8.1672 O.2       9 UNK        -0.5390 
     59 N          32.1927    0.8438   -9.9268 N.am      10 UNK        -0.4204 
     60 CA         32.7104    2.1709   -9.5724 C.3       10 UNK         0.0237 
     61 CB         33.2729    2.8357  -10.8438 C.3       10 UNK        -0.1985 
     62 C          33.7284    2.1525   -8.4110 C.2       10 UNK         0.4970 
     63 O          34.7987    2.7531   -8.5288 O.2       10 UNK        -0.4914 
     64 N          33.3942    1.4584   -7.3180 N.am      11 UNK        -0.4285 
     65 CA         34.2260    1.3614   -6.1092 C.3       11 UNK         0.1007 
     66 C          34.2023    2.6459   -5.2364 C.2       11 UNK         0.5703 
     67 N          33.0932    3.3703   -5.1513 N.am      11 UNK        -0.7361 
     68 O          35.2142    2.9973   -4.6345 O.2       11 UNK        -0.4986 
     69 C69        33.8771    0.1107   -5.2673 C.3       12 UNK        -0.0947 
     70 S70        34.2635   -1.4397   -6.1475 S.3       12 UNK        -0.2240 
     71 C71        33.8660   -2.6761   -4.8706 C.3       12 UNK         0.0194 
     72 H72        25.6817   -8.3940   -3.0205 H         1 UNK         0.0906 
     73 H73        26.9929   -8.6468   -1.8671 H         1 UNK         0.0906 
     74 H74        25.3769   -8.2308   -1.2897 H         1 UNK         0.0906 
     75 H75        25.8027   -6.4031   -4.0362 H         1 UNK         0.3140 
     76 H76        27.4646   -4.2581   -3.0227 H         1 UNK         0.1085 
     77 H77        26.7780   -3.1324   -5.2072 H         1 UNK         0.0836 
     78 H78        25.7755   -4.5043   -5.5662 H         1 UNK         0.0836 
     79 H79        29.7034   -4.0424   -7.1994 H         1 UNK         0.0731 
     80 H80        28.5377   -2.8657   -6.6784 H         1 UNK         0.0731 
     81 H81        31.8720   -3.7324   -6.3636 H         1 UNK         0.1312 
     82 H82        32.5789   -1.6281   -2.7042 H         1 UNK         0.1406 
     83 H83        28.5676   -2.4598   -3.9460 H         1 UNK         0.1631 
     84 H84        30.7887   -0.7561   -1.4177 H         1 UNK         0.0717 
     85 H85        29.7080   -2.1106   -1.1927 H         1 UNK         0.0717 
     86 H86        29.0075    2.0044   -2.9002 H         1 UNK         0.0934 
     87 H87        30.3420    0.9581   -3.3015 H         1 UNK         0.0934 
     88 H88        29.1132   -0.0290   -5.1815 H         1 UNK         0.0739 
     89 H89        26.7877    0.9877   -3.9033 H         1 UNK         0.3093 
     90 H90        24.4915    1.1142   -5.8636 H         1 UNK         0.0818 
     91 H91        23.2631   -1.0615   -6.1038 H         1 UNK         0.0819 
     92 H92        24.8012   -1.9198   -6.0687 H         1 UNK         0.0819 
     93 H93        24.4409   -0.8047   -7.3765 H         1 UNK         0.0819 
     94 H94        24.5006   -0.9229   -3.7530 H         1 UNK         0.3041 
     95 H95        24.6383    1.2117   -1.1043 H         1 UNK         0.0784 
     96 H96        22.5921    2.4693   -1.7277 H         1 UNK         0.0793 
     97 H97        21.8034    0.9888   -2.2546 H         1 UNK         0.0793 
     98 H98        22.2021    1.2257   -0.5530 H         1 UNK         0.0793 
     99 H99        23.0728   -1.1816   -1.9775 H         1 UNK         0.3024 
    100 H100       24.6711   -3.1748    0.3744 H         1 UNK         0.1171 
    101 H101       22.7985   -4.3691   -0.6646 H         1 UNK         0.0786 
    102 H102       22.2752   -2.7477   -0.2541 H         1 UNK         0.0786 
    103 H103       22.6349   -3.1612   -1.9285 H         1 UNK         0.0786 
    104 H104       25.9216   -4.3543   -1.0527 H         1 UNK         0.2977 
    105 H105       27.8462    1.6042   -7.0146 H         1 UNK         0.3127 
    106 H106       30.0060    3.1567   -8.0140 H         1 UNK         0.0770 
    107 H107       27.5142    4.7667   -7.2149 H         1 UNK         0.0814 
    108 H108       28.8135    5.3582   -8.2435 H         1 UNK         0.0814 
    109 H109       29.1380    4.9741   -6.5614 H         1 UNK         0.0814 
    110 H110       26.5048    2.4661   -8.1202 H         1 UNK         0.2983 
    111 H111       26.2443    2.6701  -10.9699 H         1 UNK         0.0947 
    112 H112       23.9705    1.7288  -10.5234 H         1 UNK         0.0806 
    113 H113       24.3357    3.0605   -9.4403 H         1 UNK         0.0806 
    114 H114       24.4186    1.3983   -8.8561 H         1 UNK         0.0806 
    115 H115       26.6249   -0.1302   -8.7246 H         1 UNK         0.3000 
    116 H116       26.4490   -2.0546  -10.9446 H         1 UNK         0.0850 
    117 H117       26.8083   -3.7184   -9.0459 H         1 UNK         0.0810 
    118 H118       25.3716   -2.7203   -8.8992 H         1 UNK         0.0810 
    119 H119       26.7881   -2.3601   -7.9282 H         1 UNK         0.0810 
    120 H120       28.9833   -0.5478   -8.9474 H         1 UNK         0.3040 
    121 H121       30.9698   -1.1572  -10.9159 H         1 UNK         0.0766 
    122 H122       32.5620   -2.3023   -9.3547 H         1 UNK         0.0812 
    123 H123       31.1243   -3.2944   -9.5538 H         1 UNK         0.0812 
    124 H124       31.3378   -2.3224   -8.0970 H         1 UNK         0.0812 
    125 H125       32.5588    0.4369  -10.7757 H         1 UNK         0.3205 
    126 H126       31.8731    2.7838   -9.2376 H         1 UNK         0.0754 
    127 H127       34.1284    2.2882  -11.2415 H         1 UNK         0.0769 
    128 H128       33.6024    3.8559  -10.6414 H         1 UNK         0.0769 
    129 H129       32.5170    2.8954  -11.6273 H         1 UNK         0.0769 
    130 H130       32.4834    1.0100   -7.2944 H         1 UNK         0.2981 
    131 H131       35.2614    1.2431   -6.4359 H         1 UNK         0.0541 
    132 H132       32.2148    3.0465   -5.5432 H         1 UNK         0.3459 
    133 H133       33.1009    4.2043   -4.5872 H         1 UNK         0.3459 
    134 H134       32.8184    0.1208   -5.0022 H         1 UNK         0.0612 
    135 H135       34.4356    0.1067   -4.3292 H         1 UNK         0.0612 
    136 H136       34.1716   -3.6622   -5.2229 H         1 UNK         0.0624 
    137 H137       34.4502   -2.4734   -3.9716 H         1 UNK         0.0624 
@<TRIPOS>BOND
     1    1    2 1    
     2    1   72 1    
     3    1   73 1    
     4    1   74 1    
     5    2    3 2    
     6    2    4 am   BACKBONE|DICT|INTERRES
     7    4    5 1    
     8    4   75 1    
     9    5    6 1    
    10    5   35 1    
    11    5   76 1    
    12    6    7 1    
    13    6   77 1    
    14    6   78 1    
    15    7    8 1    
    16    8    9 1    
    17    8   79 1    
    18    8   80 1    
    19    9   10 ar   
    20    9   14 ar   
    21   10   11 ar   
    22   10   81 1    
    23   11   12 ar   
    24   11   71 1    
    25   12   13 ar   
    26   12   82 1    
    27   13   14 ar   
    28   13   15 1    
    29   14   83 1    
    30   15   16 1    
    31   15   84 1    
    32   15   85 1    
    33   16   17 1    
    34   17   18 1    
    35   17   86 1    
    36   17   87 1    
    37   18   19 1    
    38   18   37 1    
    39   18   88 1    
    40   19   20 am   BACKBONE|DICT|INTERRES
    41   19   89 1    
    42   20   21 2    
    43   20   22 1    
    44   22   23 1    
    45   22   24 1    
    46   22   90 1    
    47   23   91 1    
    48   23   92 1    
    49   23   93 1    
    50   24   25 am   BACKBONE|DICT|INTERRES
    51   24   94 1    
    52   25   26 2    
    53   25   27 1    
    54   27   28 1    
    55   27   29 1    
    56   27   95 1    
    57   28   96 1    
    58   28   97 1    
    59   28   98 1    
    60   29   30 am   BACKBONE|DICT|INTERRES
    61   29   99 1    
    62   30   31 2    
    63   30   32 1    
    64   32   33 1    
    65   32   34 1    
    66   32  100 1    
    67   33  101 1    
    68   33  102 1    
    69   33  103 1    
    70   34   35 am   BACKBONE|DICT|INTERRES
    71   34  104 1    
    72   35   36 2    
    73   37   38 2    
    74   37   39 am   BACKBONE|DICT|INTERRES
    75   39   40 1    
    76   39  105 1    
    77   40   41 1    
    78   40   42 1    
    79   40  106 1    
    80   41  107 1    
    81   41  108 1    
    82   41  109 1    
    83   42   43 2    
    84   42   44 am   BACKBONE|DICT|INTERRES
    85   44   45 1    
    86   44  110 1    
    87   45   46 1    
    88   45   47 1    
    89   45  111 1    
    90   46  112 1    
    91   46  113 1    
    92   46  114 1    
    93   47   48 2    
    94   47   49 am   BACKBONE|DICT|INTERRES
    95   49   50 1    
    96   49  115 1    
    97   50   51 1    
    98   50   52 1    
    99   50  116 1    
   100   51  117 1    
   101   51  118 1    
   102   51  119 1    
   103   52   53 2    
   104   52   54 am   BACKBONE|DICT|INTERRES
   105   54   55 1    
   106   54  120 1    
   107   55   56 1    
   108   55   57 1    
   109   55  121 1    
   110   56  122 1    
   111   56  123 1    
   112   56  124 1    
   113   57   58 2    
   114   57   59 am   BACKBONE|DICT|INTERRES
   115   59   60 1    
   116   59  125 1    
   117   60   61 1    
   118   60   62 1    
   119   60  126 1    
   120   61  127 1    
   121   61  128 1    
   122   61  129 1    
   123   62   63 2    
   124   62   64 am   BACKBONE|DICT|INTERRES
   125   64   65 1    
   126   64  130 1    
   127   65   66 1    
   128   65   69 1    
   129   65  131 1    
   130   66   67 am   BACKBONE|DICT|INTERRES
   131   66   68 2    
   132   67  132 1    
   133   67  133 1    
   134   69   70 1    
   135   69  134 1    
   136   69  135 1    
   137   70   71 1    
   138   71  136 1    
   139   71  137 1    
@<TRIPOS>SUBSTRUCTURE
     1 UNK         1 GROUP             0       ****    0 ROOT    
