@<TRIPOS>MOLECULE
3R137
137   139    1
SMALL
USER_CHARGES


@<TRIPOS>ATOM
      1 CA         22.0155   -3.2335   -6.3656 C.3       0 UNK        -0.2020 
      2 C          22.8874   -3.8590   -5.2872 C.2       0 UNK         0.4855 
      3 O          22.3694   -4.2880   -4.2554 O.2       0 UNK        -0.5197 
      4 N          24.2062   -3.9232   -5.5175 N.am      1 UNK        -0.4892 
      5 CA         25.1890   -4.4698   -4.5752 C.3       1 UNK         0.0835 
      6 C6         26.5497   -4.7451   -5.2724 C.3       12 UNK        -0.0855 
      7 S7         27.5527   -3.2583   -5.6464 S.3       12 UNK        -0.2931 
      8 C8         28.9775   -3.5382   -4.5434 C.3       12 UNK         0.0378 
      9 C9         29.6960   -2.2362   -4.2354 C.ar      12 UNK        -0.0802 
     10 C10        30.7039   -1.7622   -5.0799 C.ar      12 UNK        -0.0944 
     11 C11        31.3315   -0.5421   -4.8143 C.ar      12 UNK        -0.0787 
     12 C12        30.9485    0.2016   -3.6945 C.ar      12 UNK        -0.0862 
     13 C13        29.9522   -0.2694   -2.8347 C.ar      12 UNK        -0.0733 
     14 C14        29.3434   -1.4988   -3.1017 C.ar      12 UNK        -0.0832 
     15 C15        29.5287    0.5624   -1.6290 C.3       12 UNK         0.0240 
     16 S16        27.7450    0.9518   -1.6149 S.3       12 UNK        -0.2522 
     17 C17        27.4726    1.6214   -3.2935 C.3       12 UNK        -0.0967 
     18 CA         26.6720    0.6193   -4.1708 C.3       5 UNK         0.0660 
     19 N          25.3325    0.3123   -3.6490 N.am      5 UNK        -0.4015 
     20 C          24.2982    1.1585   -3.5386 C.2       4 UNK         0.4946 
     21 O          24.3700    2.3637   -3.7825 O.2       4 UNK        -0.5353 
     22 CA         22.9357    0.5738   -3.1356 C.3       4 UNK         0.0277 
     23 CB         22.1263    0.2199   -4.3952 C.3       4 UNK        -0.1981 
     24 N          23.0286   -0.6151   -2.2791 N.am      4 UNK        -0.4209 
     25 C          22.3223   -0.7878   -1.1507 C.2       3 UNK         0.4942 
     26 O          21.5757    0.0695   -0.6754 O.2       3 UNK        -0.5208 
     27 CA         22.4216   -2.1469   -0.4290 C.3       3 UNK         0.0250 
     28 CB         21.1831   -3.0042   -0.7386 C.3       3 UNK        -0.1990 
     29 N          23.6202   -2.9119   -0.7705 N.am      3 UNK        -0.4232 
     30 C          24.8574   -2.6257   -0.3440 C.2       2 UNK         0.4993 
     31 O          25.1085   -1.7337    0.4664 O.2       2 UNK        -0.5286 
     32 CA         26.0181   -3.4570   -0.9282 C.3       2 UNK         0.0209 
     33 CB         26.5240   -4.4761    0.1059 C.3       2 UNK        -0.1931 
     34 N          25.7305   -4.1587   -2.1900 N.am      2 UNK        -0.4546 
     35 C          25.3264   -3.5724   -3.3255 C.2       1 UNK         0.5154 
     36 O          25.0722   -2.3676   -3.4078 O.2       1 UNK        -0.5181 
     37 C          26.6282    0.9932   -5.6692 C.2       5 UNK         0.5014 
     38 O          27.3964    1.8406   -6.1283 O.2       5 UNK        -0.5248 
     39 N          25.7176    0.3395   -6.4071 N.am      6 UNK        -0.4434 
     40 CA         25.3866    0.6194   -7.8061 C.3       6 UNK         0.0363 
     41 CB         24.1178   -0.1628   -8.1826 C.3       6 UNK        -0.1936 
     42 C          26.5154    0.3173   -8.8058 C.2       6 UNK         0.5081 
     43 O          26.5173    0.8959   -9.8926 O.2       6 UNK        -0.5248 
     44 N          27.4468   -0.5754   -8.4390 N.am      7 UNK        -0.4718 
     45 CA         28.6023   -0.9393   -9.2651 C.3       7 UNK         0.0273 
     46 CB         29.2266   -2.2335   -8.7279 C.3       7 UNK        -0.1935 
     47 C          29.6517    0.1832   -9.3807 C.2       7 UNK         0.5018 
     48 O          30.3825    0.1988  -10.3716 O.2       7 UNK        -0.5186 
     49 N          29.6787    1.0967   -8.3935 N.am      8 UNK        -0.4240 
     50 CA         30.3930    2.3805   -8.3318 C.3       8 UNK         0.0235 
     51 CB         29.5094    3.4787   -8.9600 C.3       8 UNK        -0.2000 
     52 C          31.8231    2.3623   -8.9066 C.2       8 UNK         0.4941 
     53 O          32.7642    2.0236   -8.1885 O.2       8 UNK        -0.5273 
     54 N          31.9552    2.6984  -10.1988 N.am      9 UNK        -0.4262 
     55 CA         33.2004    2.7147  -10.9734 C.3       9 UNK         0.0264 
     56 CB         32.8949    3.1824  -12.4053 C.3       9 UNK        -0.1955 
     57 C          33.9694    1.3797  -10.9980 C.2       9 UNK         0.5031 
     58 O          35.1804    1.4003  -11.2227 O.2       9 UNK        -0.5390 
     59 N          33.2885    0.2560  -10.7224 N.am      10 UNK        -0.4204 
     60 CA         33.8884   -1.0700  -10.5325 C.3       10 UNK         0.0237 
     61 CB         32.7771   -2.0961  -10.2673 C.3       10 UNK        -0.1985 
     62 C          34.9368   -1.1322   -9.4036 C.2       10 UNK         0.4970 
     63 O          35.8399   -1.9664   -9.4786 O.2       10 UNK        -0.4914 
     64 N          34.8170   -0.2513   -8.4003 N.am      11 UNK        -0.4285 
     65 CA         35.8198   -0.0597   -7.3421 C.3       11 UNK         0.1007 
     66 C          37.0550    0.7831   -7.7826 C.2       11 UNK         0.5703 
     67 N          37.1040    1.3467   -8.9848 N.am      11 UNK        -0.7361 
     68 O          38.0064    0.9169   -7.0162 O.2       11 UNK        -0.4986 
     69 C69        35.1792    0.5087   -6.0495 C.3       12 UNK        -0.0947 
     70 S70        34.0451   -0.6726   -5.2465 S.3       12 UNK        -0.2240 
     71 C71        32.4214   -0.0187   -5.7334 C.3       12 UNK         0.0194 
     72 H72        22.6080   -2.7831   -7.1608 H         1 UNK         0.0906 
     73 H73        21.3789   -2.4609   -5.9360 H         1 UNK         0.0906 
     74 H74        21.3721   -3.9921   -6.8103 H         1 UNK         0.0906 
     75 H75        24.5907   -3.5384   -6.3679 H         1 UNK         0.3140 
     76 H76        24.7944   -5.4311   -4.2375 H         1 UNK         0.1085 
     77 H77        26.3819   -5.2809   -6.2082 H         1 UNK         0.0836 
     78 H78        27.1362   -5.4340   -4.6624 H         1 UNK         0.0836 
     79 H79        29.6613   -4.2502   -5.0081 H         1 UNK         0.0731 
     80 H80        28.6434   -3.9947   -3.6102 H         1 UNK         0.0731 
     81 H81        31.0016   -2.3415   -5.9424 H         1 UNK         0.1312 
     82 H82        31.4303    1.1488   -3.4934 H         1 UNK         0.1406 
     83 H83        28.5657   -1.8610   -2.4448 H         1 UNK         0.1631 
     84 H84        30.0861    1.4996   -1.5906 H         1 UNK         0.0717 
     85 H85        29.7785    0.0191   -0.7167 H         1 UNK         0.0717 
     86 H86        26.9476    2.5740   -3.2127 H         1 UNK         0.0934 
     87 H87        28.4375    1.8551   -3.7462 H         1 UNK         0.0934 
     88 H88        27.2025   -0.3311   -4.1549 H         1 UNK         0.0739 
     89 H89        25.1836   -0.6780   -3.4545 H         1 UNK         0.3093 
     90 H90        22.4086    1.3732   -2.6105 H         1 UNK         0.0818 
     91 H91        21.1231   -0.1211   -4.1392 H         1 UNK         0.0819 
     92 H92        22.6112   -0.5663   -4.9738 H         1 UNK         0.0819 
     93 H93        22.0170    1.0869   -5.0484 H         1 UNK         0.0819 
     94 H94        23.6369   -1.3651   -2.5931 H         1 UNK         0.3041 
     95 H95        22.4375   -1.9456    0.6444 H         1 UNK         0.0784 
     96 H96        20.2658   -2.4787   -0.4690 H         1 UNK         0.0793 
     97 H97        21.1180   -3.2502   -1.7997 H         1 UNK         0.0793 
     98 H98        21.1957   -3.9385   -0.1769 H         1 UNK         0.0793 
     99 H99        23.5065   -3.6607   -1.4390 H         1 UNK         0.3024 
    100 H100       26.8237   -2.7486   -1.1287 H         1 UNK         0.1171 
    101 H101       26.7768   -3.9865    1.0477 H         1 UNK         0.0786 
    102 H102       25.7717   -5.2348    0.3252 H         1 UNK         0.0786 
    103 H103       27.4239   -4.9835   -0.2423 H         1 UNK         0.0786 
    104 H104       25.9059   -5.1537   -2.1938 H         1 UNK         0.2977 
    105 H105       25.1570   -0.3606   -5.9448 H         1 UNK         0.3127 
    106 H106       25.1664    1.6864   -7.8827 H         1 UNK         0.0770 
    107 H107       24.2787   -1.2396   -8.1254 H         1 UNK         0.0814 
    108 H108       23.8094    0.0647   -9.2041 H         1 UNK         0.0814 
    109 H109       23.2817    0.0921   -7.5312 H         1 UNK         0.0814 
    110 H110       27.3650   -1.0212   -7.5357 H         1 UNK         0.2983 
    111 H111       28.2388   -1.1399  -10.2756 H         1 UNK         0.0947 
    112 H112       29.6546   -2.0896   -7.7380 H         1 UNK         0.0806 
    113 H113       30.0196   -2.5872   -9.3860 H         1 UNK         0.0806 
    114 H114       28.4889   -3.0334   -8.6617 H         1 UNK         0.0806 
    115 H115       29.0252    0.9517   -7.6343 H         1 UNK         0.3000 
    116 H116       30.5001    2.6165   -7.2717 H         1 UNK         0.0850 
    117 H117       30.0162    4.4449   -8.9631 H         1 UNK         0.0810 
    118 H118       28.5874    3.6038   -8.3912 H         1 UNK         0.0810 
    119 H119       29.2266    3.2439   -9.9868 H         1 UNK         0.0810 
    120 H120       31.1112    2.9141  -10.7092 H         1 UNK         0.3040 
    121 H121       33.8581    3.4500  -10.5055 H         1 UNK         0.0766 
    122 H122       33.8065    3.2341  -13.0027 H         1 UNK         0.0812 
    123 H123       32.4494    4.1773  -12.4131 H         1 UNK         0.0812 
    124 H124       32.2105    2.5018  -12.9136 H         1 UNK         0.0812 
    125 H125       32.2832    0.3266  -10.5748 H         1 UNK         0.3205 
    126 H126       34.3915   -1.3365  -11.4641 H         1 UNK         0.0754 
    127 H127       32.2625   -1.8851   -9.3293 H         1 UNK         0.0769 
    128 H128       33.1844   -3.1056  -10.1963 H         1 UNK         0.0769 
    129 H129       32.0366   -2.0999  -11.0675 H         1 UNK         0.0769 
    130 H130       34.0596    0.4236   -8.4163 H         1 UNK         0.2981 
    131 H131       36.2268   -1.0409   -7.0901 H         1 UNK         0.0541 
    132 H132       36.3486    1.2443   -9.6544 H         1 UNK         0.3459 
    133 H133       37.9211    1.8784   -9.2384 H         1 UNK         0.3459 
    134 H134       34.6678    1.4506   -6.2535 H         1 UNK         0.0612 
    135 H135       35.9476    0.7418   -5.3101 H         1 UNK         0.0612 
    136 H136       32.4350    1.0713   -5.6971 H         1 UNK         0.0624 
    137 H137       32.2124   -0.2954   -6.7679 H         1 UNK         0.0624 
@<TRIPOS>BOND
     1    1    2 1    
     2    1   72 1    
     3    1   73 1    
     4    1   74 1    
     5    2    3 2    
     6    2    4 am   BACKBONE|DICT|INTERRES
     7    4    5 1    
     8    4   75 1    
     9    5    6 1    
    10    5   35 1    
    11    5   76 1    
    12    6    7 1    
    13    6   77 1    
    14    6   78 1    
    15    7    8 1    
    16    8    9 1    
    17    8   79 1    
    18    8   80 1    
    19    9   10 ar   
    20    9   14 ar   
    21   10   11 ar   
    22   10   81 1    
    23   11   12 ar   
    24   11   71 1    
    25   12   13 ar   
    26   12   82 1    
    27   13   14 ar   
    28   13   15 1    
    29   14   83 1    
    30   15   16 1    
    31   15   84 1    
    32   15   85 1    
    33   16   17 1    
    34   17   18 1    
    35   17   86 1    
    36   17   87 1    
    37   18   19 1    
    38   18   37 1    
    39   18   88 1    
    40   19   20 am   BACKBONE|DICT|INTERRES
    41   19   89 1    
    42   20   21 2    
    43   20   22 1    
    44   22   23 1    
    45   22   24 1    
    46   22   90 1    
    47   23   91 1    
    48   23   92 1    
    49   23   93 1    
    50   24   25 am   BACKBONE|DICT|INTERRES
    51   24   94 1    
    52   25   26 2    
    53   25   27 1    
    54   27   28 1    
    55   27   29 1    
    56   27   95 1    
    57   28   96 1    
    58   28   97 1    
    59   28   98 1    
    60   29   30 am   BACKBONE|DICT|INTERRES
    61   29   99 1    
    62   30   31 2    
    63   30   32 1    
    64   32   33 1    
    65   32   34 1    
    66   32  100 1    
    67   33  101 1    
    68   33  102 1    
    69   33  103 1    
    70   34   35 am   BACKBONE|DICT|INTERRES
    71   34  104 1    
    72   35   36 2    
    73   37   38 2    
    74   37   39 am   BACKBONE|DICT|INTERRES
    75   39   40 1    
    76   39  105 1    
    77   40   41 1    
    78   40   42 1    
    79   40  106 1    
    80   41  107 1    
    81   41  108 1    
    82   41  109 1    
    83   42   43 2    
    84   42   44 am   BACKBONE|DICT|INTERRES
    85   44   45 1    
    86   44  110 1    
    87   45   46 1    
    88   45   47 1    
    89   45  111 1    
    90   46  112 1    
    91   46  113 1    
    92   46  114 1    
    93   47   48 2    
    94   47   49 am   BACKBONE|DICT|INTERRES
    95   49   50 1    
    96   49  115 1    
    97   50   51 1    
    98   50   52 1    
    99   50  116 1    
   100   51  117 1    
   101   51  118 1    
   102   51  119 1    
   103   52   53 2    
   104   52   54 am   BACKBONE|DICT|INTERRES
   105   54   55 1    
   106   54  120 1    
   107   55   56 1    
   108   55   57 1    
   109   55  121 1    
   110   56  122 1    
   111   56  123 1    
   112   56  124 1    
   113   57   58 2    
   114   57   59 am   BACKBONE|DICT|INTERRES
   115   59   60 1    
   116   59  125 1    
   117   60   61 1    
   118   60   62 1    
   119   60  126 1    
   120   61  127 1    
   121   61  128 1    
   122   61  129 1    
   123   62   63 2    
   124   62   64 am   BACKBONE|DICT|INTERRES
   125   64   65 1    
   126   64  130 1    
   127   65   66 1    
   128   65   69 1    
   129   65  131 1    
   130   66   67 am   BACKBONE|DICT|INTERRES
   131   66   68 2    
   132   67  132 1    
   133   67  133 1    
   134   69   70 1    
   135   69  134 1    
   136   69  135 1    
   137   70   71 1    
   138   71  136 1    
   139   71  137 1    
@<TRIPOS>SUBSTRUCTURE
     1 UNK         1 GROUP             0       ****    0 ROOT    
