@<TRIPOS>MOLECULE
3R137
137   139    1
SMALL
USER_CHARGES


@<TRIPOS>ATOM
      1 CA         29.8495   -4.9962   -2.7801 C.3       0 UNK        -0.2020 
      2 C          29.1971   -4.1321   -1.7127 C.2       0 UNK         0.4855 
      3 O          28.8007   -4.6420   -0.6648 O.2       0 UNK        -0.5197 
      4 N          29.0733   -2.8257   -1.9773 N.am      1 UNK        -0.4892 
      5 CA         28.4650   -1.8354   -1.0760 C.3       1 UNK         0.0835 
      6 C6         28.8118   -0.3894   -1.5089 C.3       12 UNK        -0.0855 
      7 S7         30.5875   -0.0144   -1.3582 S.3       12 UNK        -0.2931 
      8 C8         31.0479    0.3038   -3.0896 C.3       12 UNK         0.0378 
      9 C9         31.2242   -0.9821   -3.8839 C.ar      12 UNK        -0.0802 
     10 C10        32.2659   -1.8586   -3.5627 C.ar      12 UNK        -0.0944 
     11 C11        32.4927   -3.0015   -4.3326 C.ar      12 UNK        -0.0787 
     12 C12        31.6727   -3.2636   -5.4325 C.ar      12 UNK        -0.0862 
     13 C13        30.6314   -2.3949   -5.7667 C.ar      12 UNK        -0.0733 
     14 C14        30.3982   -1.2630   -4.9788 C.ar      12 UNK        -0.0832 
     15 C15        29.8170   -2.6508   -7.0251 C.3       12 UNK         0.0240 
     16 S16        28.4646   -3.8399   -6.7606 S.3       12 UNK        -0.2522 
     17 C17        27.1886   -2.8289   -5.9415 C.3       12 UNK        -0.0967 
     18 CA         26.3657   -1.9711   -6.9460 C.3       5 UNK         0.0660 
     19 N          24.9405   -1.9318   -6.6232 N.am      5 UNK        -0.4015 
     20 C          23.9664   -1.6736   -7.5086 C.2       4 UNK         0.4946 
     21 O          24.1518   -1.5650   -8.7209 O.2       4 UNK        -0.5353 
     22 CA         22.5396   -1.4947   -6.9564 C.3       4 UNK         0.0277 
     23 CB         21.7461   -2.8050   -7.0858 C.3       4 UNK        -0.1981 
     24 N          22.5032   -1.0440   -5.5625 N.am      4 UNK        -0.4209 
     25 C          22.9176    0.1581   -5.1371 C.2       3 UNK         0.4942 
     26 O          23.3383    1.0436   -5.8812 O.2       3 UNK        -0.5208 
     27 CA         22.9287    0.3764   -3.6136 C.3       3 UNK         0.0250 
     28 CB         21.5447    0.8284   -3.1213 C.3       3 UNK        -0.1990 
     29 N          23.3668   -0.8020   -2.8510 N.am      3 UNK        -0.4232 
     30 C          24.5545   -1.4037   -3.0032 C.2       2 UNK         0.4993 
     31 O          25.3894   -1.0633   -3.8464 O.2       2 UNK        -0.5286 
     32 CA         24.8508   -2.6207   -2.1162 C.3       2 UNK         0.0209 
     33 CB         24.3863   -3.9140   -2.8053 C.3       2 UNK        -0.1931 
     34 N          26.2932   -2.6902   -1.8842 N.am      2 UNK        -0.4546 
     35 C          26.9312   -1.9700   -0.9529 C.2       1 UNK         0.5154 
     36 O          26.3488   -1.3789   -0.0414 O.2       1 UNK        -0.5181 
     37 C          26.8958   -0.5313   -7.0356 C.2       5 UNK         0.5014 
     38 O          27.4205   -0.1470   -8.0790 O.2       5 UNK        -0.5248 
     39 N          26.7155    0.2380   -5.9499 N.am      6 UNK        -0.4434 
     40 CA         27.2035    1.6098   -5.7636 C.3       6 UNK         0.0363 
     41 CB         26.7617    2.1153   -4.3813 C.3       6 UNK        -0.1936 
     42 C          26.7686    2.6013   -6.8570 C.2       6 UNK         0.5081 
     43 O          27.5222    3.5205   -7.1775 O.2       6 UNK        -0.5248 
     44 N          25.5721    2.3931   -7.4210 N.am      7 UNK        -0.4718 
     45 CA         25.0466    3.1499   -8.5581 C.3       7 UNK         0.0273 
     46 CB         23.5429    2.8582   -8.6918 C.3       7 UNK        -0.1935 
     47 C          25.7646    2.8628   -9.8924 C.2       7 UNK         0.5018 
     48 O          25.6445    3.6770  -10.8094 O.2       7 UNK        -0.5186 
     49 N          26.4621    1.7229   -9.9992 N.am      8 UNK        -0.4240 
     50 CA         27.1033    1.2483  -11.2255 C.3       8 UNK         0.0235 
     51 CB         26.6491   -0.1954  -11.5020 C.3       8 UNK        -0.2000 
     52 C          28.6359    1.3180  -11.1586 C.2       8 UNK         0.4941 
     53 O          29.2530    1.6866  -12.1595 O.2       8 UNK        -0.5273 
     54 N          29.2341    0.9483  -10.0186 N.am      9 UNK        -0.4262 
     55 CA         30.6828    0.8235   -9.8436 C.3       9 UNK         0.0264 
     56 CB         31.1573   -0.5138  -10.4513 C.3       9 UNK        -0.1955 
     57 C          31.0556    0.9142   -8.3583 C.2       9 UNK         0.5031 
     58 O          30.1725    0.9525   -7.5013 O.2       9 UNK        -0.5390 
     59 N          32.3618    0.9187   -8.0736 N.am      10 UNK        -0.4204 
     60 CA         32.9155    0.8418   -6.7263 C.3       10 UNK         0.0237 
     61 CB         32.9971    2.2441   -6.0969 C.3       10 UNK        -0.1985 
     62 C          34.2906    0.1736   -6.7845 C.2       10 UNK         0.4970 
     63 O          35.0113    0.3587   -7.7683 O.2       10 UNK        -0.4914 
     64 N          34.6356   -0.5597   -5.7200 N.am      11 UNK        -0.4285 
     65 CA         35.9628   -1.1633   -5.5142 C.3       11 UNK         0.1007 
     66 C          37.0759   -0.1447   -5.1246 C.2       11 UNK         0.5703 
     67 N          36.7576    1.0954   -4.7705 N.am      11 UNK        -0.7361 
     68 O          38.2559   -0.4862   -5.1545 O.2       11 UNK        -0.4986 
     69 C69        35.9064   -2.3358   -4.4982 C.3       12 UNK        -0.0947 
     70 S70        35.0184   -3.7904   -5.1484 S.3       12 UNK        -0.2240 
     71 C71        33.6242   -3.9567   -3.9900 C.3       12 UNK         0.0194 
     72 H72        29.3955   -5.9867   -2.7981 H         1 UNK         0.0906 
     73 H73        29.7340   -4.5600   -3.7718 H         1 UNK         0.0906 
     74 H74        30.9131   -5.1109   -2.5739 H         1 UNK         0.0906 
     75 H75        29.4789   -2.4521   -2.8249 H         1 UNK         0.3140 
     76 H76        28.8691   -2.0004   -0.0745 H         1 UNK         0.1085 
     77 H77        28.4738   -0.2086   -2.5307 H         1 UNK         0.0836 
     78 H78        28.2874    0.3397   -0.8871 H         1 UNK         0.0836 
     79 H79        30.3117    0.9615   -3.5551 H         1 UNK         0.0731 
     80 H80        31.9905    0.8528   -3.1018 H         1 UNK         0.0731 
     81 H81        32.9047   -1.6429   -2.7167 H         1 UNK         0.1312 
     82 H82        31.8591   -4.1378   -6.0417 H         1 UNK         0.1406 
     83 H83        29.6145   -0.5709   -5.2574 H         1 UNK         0.1631 
     84 H84        29.4322   -1.7170   -7.4305 H         1 UNK         0.0717 
     85 H85        30.4741   -3.0507   -7.7987 H         1 UNK         0.0717 
     86 H86        26.5319   -3.5401   -5.4396 H         1 UNK         0.0934 
     87 H87        27.6344   -2.2416   -5.1368 H         1 UNK         0.0934 
     88 H88        26.4596   -2.4162   -7.9395 H         1 UNK         0.0739 
     89 H89        24.7129   -1.9242   -5.6377 H         1 UNK         0.3093 
     90 H90        22.0485   -0.7335   -7.5668 H         1 UNK         0.0818 
     91 H91        20.7087   -2.6737   -6.7776 H         1 UNK         0.0819 
     92 H92        21.7324   -3.1515   -8.1204 H         1 UNK         0.0819 
     93 H93        22.1794   -3.6029   -6.4813 H         1 UNK         0.0819 
     94 H94        22.1683   -1.7048   -4.8765 H         1 UNK         0.3041 
     95 H95        23.6393    1.1790   -3.4068 H         1 UNK         0.0784 
     96 H96        21.2077    1.7128   -3.6643 H         1 UNK         0.0793 
     97 H97        20.7903    0.0531   -3.2611 H         1 UNK         0.0793 
     98 H98        21.5657    1.0903   -2.0632 H         1 UNK         0.0793 
     99 H99        22.7289   -1.1476   -2.1478 H         1 UNK         0.3024 
    100 H100       24.3263   -2.5133   -1.1637 H         1 UNK         0.1171 
    101 H101       24.6145   -4.7886   -2.1957 H         1 UNK         0.0786 
    102 H102       23.3074   -3.9069   -2.9662 H         1 UNK         0.0786 
    103 H103       24.8597   -4.0534   -3.7773 H         1 UNK         0.0786 
    104 H104       26.8514   -3.1133   -2.6100 H         1 UNK         0.2977 
    105 H105       26.2330   -0.1745   -5.1516 H         1 UNK         0.3127 
    106 H106       28.2936    1.5685   -5.7782 H         1 UNK         0.0770 
    107 H107       25.6757    2.1796   -4.3089 H         1 UNK         0.0814 
    108 H108       27.1619    3.1106   -4.1838 H         1 UNK         0.0814 
    109 H109       27.1115    1.4609   -3.5838 H         1 UNK         0.0814 
    110 H110       24.9759    1.6659   -7.0389 H         1 UNK         0.2983 
    111 H111       25.1723    4.2138   -8.3455 H         1 UNK         0.0947 
    112 H112       23.1052    3.4177   -9.5196 H         1 UNK         0.0806 
    113 H113       23.0024    3.1421   -7.7885 H         1 UNK         0.0806 
    114 H114       23.3540    1.7993   -8.8748 H         1 UNK         0.0806 
    115 H115       26.5703    1.1290   -9.1806 H         1 UNK         0.3000 
    116 H116       26.7891    1.8586  -12.0750 H         1 UNK         0.0850 
    117 H117       27.0995   -0.5787  -12.4185 H         1 UNK         0.0810 
    118 H118       25.5671   -0.2529  -11.6226 H         1 UNK         0.0810 
    119 H119       26.9285   -0.8713  -10.6926 H         1 UNK         0.0810 
    120 H120       28.6772    0.6773   -9.2075 H         1 UNK         0.3040 
    121 H121       31.1767    1.6529  -10.3543 H         1 UNK         0.0766 
    122 H122       30.9233   -0.5745  -11.5142 H         1 UNK         0.0812 
    123 H123       30.6853   -1.3648   -9.9585 H         1 UNK         0.0812 
    124 H124       32.2365   -0.6392  -10.3586 H         1 UNK         0.0812 
    125 H125       33.0486    0.8573   -8.8152 H         1 UNK         0.3205 
    126 H126       32.2668    0.2164   -6.1181 H         1 UNK         0.0754 
    127 H127       33.4036    2.1990   -5.0861 H         1 UNK         0.0769 
    128 H128       32.0106    2.7030   -6.0261 H         1 UNK         0.0769 
    129 H129       33.6349    2.9097   -6.6800 H         1 UNK         0.0769 
    130 H130       33.9707   -0.6913   -4.9722 H         1 UNK         0.2981 
    131 H131       36.2821   -1.5789   -6.4721 H         1 UNK         0.0541 
    132 H132       35.7965    1.3913   -4.7408 H         1 UNK         0.3459 
    133 H133       37.4926    1.7406   -4.5272 H         1 UNK         0.3459 
    134 H134       35.4607   -2.0073   -3.5580 H         1 UNK         0.0612 
    135 H135       36.9117   -2.6805   -4.2483 H         1 UNK         0.0612 
    136 H136       33.9700   -3.8096   -2.9657 H         1 UNK         0.0624 
    137 H137       33.2518   -4.9809   -4.0398 H         1 UNK         0.0624 
@<TRIPOS>BOND
     1    1    2 1    
     2    1   72 1    
     3    1   73 1    
     4    1   74 1    
     5    2    3 2    
     6    2    4 am   BACKBONE|DICT|INTERRES
     7    4    5 1    
     8    4   75 1    
     9    5    6 1    
    10    5   35 1    
    11    5   76 1    
    12    6    7 1    
    13    6   77 1    
    14    6   78 1    
    15    7    8 1    
    16    8    9 1    
    17    8   79 1    
    18    8   80 1    
    19    9   10 ar   
    20    9   14 ar   
    21   10   11 ar   
    22   10   81 1    
    23   11   12 ar   
    24   11   71 1    
    25   12   13 ar   
    26   12   82 1    
    27   13   14 ar   
    28   13   15 1    
    29   14   83 1    
    30   15   16 1    
    31   15   84 1    
    32   15   85 1    
    33   16   17 1    
    34   17   18 1    
    35   17   86 1    
    36   17   87 1    
    37   18   19 1    
    38   18   37 1    
    39   18   88 1    
    40   19   20 am   BACKBONE|DICT|INTERRES
    41   19   89 1    
    42   20   21 2    
    43   20   22 1    
    44   22   23 1    
    45   22   24 1    
    46   22   90 1    
    47   23   91 1    
    48   23   92 1    
    49   23   93 1    
    50   24   25 am   BACKBONE|DICT|INTERRES
    51   24   94 1    
    52   25   26 2    
    53   25   27 1    
    54   27   28 1    
    55   27   29 1    
    56   27   95 1    
    57   28   96 1    
    58   28   97 1    
    59   28   98 1    
    60   29   30 am   BACKBONE|DICT|INTERRES
    61   29   99 1    
    62   30   31 2    
    63   30   32 1    
    64   32   33 1    
    65   32   34 1    
    66   32  100 1    
    67   33  101 1    
    68   33  102 1    
    69   33  103 1    
    70   34   35 am   BACKBONE|DICT|INTERRES
    71   34  104 1    
    72   35   36 2    
    73   37   38 2    
    74   37   39 am   BACKBONE|DICT|INTERRES
    75   39   40 1    
    76   39  105 1    
    77   40   41 1    
    78   40   42 1    
    79   40  106 1    
    80   41  107 1    
    81   41  108 1    
    82   41  109 1    
    83   42   43 2    
    84   42   44 am   BACKBONE|DICT|INTERRES
    85   44   45 1    
    86   44  110 1    
    87   45   46 1    
    88   45   47 1    
    89   45  111 1    
    90   46  112 1    
    91   46  113 1    
    92   46  114 1    
    93   47   48 2    
    94   47   49 am   BACKBONE|DICT|INTERRES
    95   49   50 1    
    96   49  115 1    
    97   50   51 1    
    98   50   52 1    
    99   50  116 1    
   100   51  117 1    
   101   51  118 1    
   102   51  119 1    
   103   52   53 2    
   104   52   54 am   BACKBONE|DICT|INTERRES
   105   54   55 1    
   106   54  120 1    
   107   55   56 1    
   108   55   57 1    
   109   55  121 1    
   110   56  122 1    
   111   56  123 1    
   112   56  124 1    
   113   57   58 2    
   114   57   59 am   BACKBONE|DICT|INTERRES
   115   59   60 1    
   116   59  125 1    
   117   60   61 1    
   118   60   62 1    
   119   60  126 1    
   120   61  127 1    
   121   61  128 1    
   122   61  129 1    
   123   62   63 2    
   124   62   64 am   BACKBONE|DICT|INTERRES
   125   64   65 1    
   126   64  130 1    
   127   65   66 1    
   128   65   69 1    
   129   65  131 1    
   130   66   67 am   BACKBONE|DICT|INTERRES
   131   66   68 2    
   132   67  132 1    
   133   67  133 1    
   134   69   70 1    
   135   69  134 1    
   136   69  135 1    
   137   70   71 1    
   138   71  136 1    
   139   71  137 1    
@<TRIPOS>SUBSTRUCTURE
     1 UNK         1 GROUP             0       ****    0 ROOT    
