@<TRIPOS>MOLECULE
3R137
137   139    1
SMALL
USER_CHARGES


@<TRIPOS>ATOM
      1 CA         30.1050   -4.5528   -0.4353 C.3       0 UNK        -0.2020 
      2 C          28.7545   -4.7045   -1.1191 C.2       0 UNK         0.4855 
      3 O          27.9581   -5.5548   -0.7214 O.2       0 UNK        -0.5197 
      4 N          28.4949   -3.8751   -2.1380 N.am      1 UNK        -0.4892 
      5 CA         27.2996   -3.8837   -2.9971 C.3       1 UNK         0.0835 
      6 C6         27.1469   -5.1728   -3.8497 C.3       12 UNK        -0.0855 
      7 S7         28.6014   -5.5883   -4.8883 S.3       12 UNK        -0.2931 
      8 C8         28.9669   -4.0733   -5.8488 C.3       12 UNK         0.0378 
      9 C9         30.0431   -3.2247   -5.1782 C.ar      12 UNK        -0.0802 
     10 C10        31.3720   -3.6534   -5.1757 C.ar      12 UNK        -0.0944 
     11 C11        32.3556   -2.9165   -4.5101 C.ar      12 UNK        -0.0787 
     12 C12        31.9943   -1.7587   -3.8136 C.ar      12 UNK        -0.0862 
     13 C13        30.6694   -1.3105   -3.8059 C.ar      12 UNK        -0.0733 
     14 C14        29.7152   -2.0268   -4.5392 C.ar      12 UNK        -0.0832 
     15 C15        30.3142   -0.0879   -2.9525 C.3       12 UNK         0.0240 
     16 S16        28.5249    0.2293   -2.7295 S.3       12 UNK        -0.2522 
     17 C17        28.1783    1.4821   -4.0113 C.3       12 UNK        -0.0967 
     18 CA         27.6405    0.8869   -5.3349 C.3       5 UNK         0.0660 
     19 N          26.4128    0.0939   -5.1594 N.am      5 UNK        -0.4015 
     20 C          25.8007   -0.5849   -6.1432 C.2       4 UNK         0.4946 
     21 O          26.2259   -0.6155   -7.2978 O.2       4 UNK        -0.5353 
     22 CA         24.5022   -1.3486   -5.8332 C.3       4 UNK         0.0277 
     23 CB         24.6911   -2.8481   -6.1040 C.3       4 UNK        -0.1981 
     24 N          23.9741   -1.1535   -4.4791 N.am      4 UNK        -0.4209 
     25 C          23.3409   -0.0422   -4.0713 C.2       3 UNK         0.4942 
     26 O          23.2340    0.9676   -4.7685 O.2       3 UNK        -0.5208 
     27 CA         22.7162   -0.0455   -2.6623 C.3       3 UNK         0.0250 
     28 CB         21.2058   -0.3185   -2.7486 C.3       3 UNK        -0.1990 
     29 N          23.3265   -1.0152   -1.7488 N.am      3 UNK        -0.4232 
     30 C          24.5598   -0.8980   -1.2406 C.2       2 UNK         0.4993 
     31 O          25.2926    0.0678   -1.4571 O.2       2 UNK        -0.5286 
     32 CA         25.0944   -2.0621   -0.3857 C.3       2 UNK         0.0209 
     33 CB         24.0048   -3.0234    0.1453 C.3       2 UNK        -0.1931 
     34 N          26.1359   -2.7899   -1.1199 N.am      2 UNK        -0.4546 
     35 C          26.0027   -3.4291   -2.2933 C.2       1 UNK         0.5154 
     36 O          24.9204   -3.5776   -2.8651 O.2       1 UNK        -0.5181 
     37 C          27.5074    1.9915   -6.4031 C.2       5 UNK         0.5014 
     38 O          28.4867    2.2633   -7.0975 O.2       5 UNK        -0.5248 
     39 N          26.3076    2.5719   -6.5508 N.am      6 UNK        -0.4434 
     40 CA         25.9913    3.5563   -7.5889 C.3       6 UNK         0.0363 
     41 CB         24.6271    4.1950   -7.2834 C.3       6 UNK        -0.1936 
     42 C          26.0031    2.9685   -9.0129 C.2       6 UNK         0.5081 
     43 O          26.3705    3.6754   -9.9510 O.2       6 UNK        -0.5248 
     44 N          25.6115    1.6944   -9.1521 N.am      7 UNK        -0.4718 
     45 CA         25.6095    0.9631  -10.4214 C.3       7 UNK         0.0273 
     46 CB         24.5363   -0.1372  -10.3764 C.3       7 UNK        -0.1935 
     47 C          26.9892    0.3623  -10.7280 C.2       7 UNK         0.5018 
     48 O          27.4284    0.4012  -11.8773 O.2       7 UNK        -0.5186 
     49 N          27.6531   -0.1647   -9.6906 N.am      8 UNK        -0.4240 
     50 CA         28.9810   -0.7792   -9.7558 C.3       8 UNK         0.0235 
     51 CB         29.1577   -1.6900   -8.5281 C.3       8 UNK        -0.2000 
     52 C          30.1411    0.2299   -9.8421 C.2       8 UNK         0.4941 
     53 O          31.2883   -0.2058   -9.9431 O.2       8 UNK        -0.5273 
     54 N          29.8482    1.5376   -9.7419 N.am      9 UNK        -0.4262 
     55 CA         30.7971    2.6607   -9.6707 C.3       9 UNK         0.0264 
     56 CB         31.5063    2.8621  -11.0260 C.3       9 UNK        -0.1955 
     57 C          31.7823    2.5123   -8.4933 C.2       9 UNK         0.5031 
     58 O          32.9802    2.7655   -8.6426 O.2       9 UNK        -0.5390 
     59 N          31.2479    2.0301   -7.3613 N.am      10 UNK        -0.4204 
     60 CA         31.9309    1.6224   -6.1296 C.3       10 UNK         0.0237 
     61 CB         32.2903    2.8664   -5.2927 C.3       10 UNK        -0.1985 
     62 C          33.1306    0.6759   -6.3539 C.2       10 UNK         0.4970 
     63 O          34.1250    0.7896   -5.6369 O.2       10 UNK        -0.4914 
     64 N          33.0181   -0.1983   -7.3674 N.am      11 UNK        -0.4285 
     65 CA         34.0619   -1.0803   -7.9178 C.3       11 UNK         0.1007 
     66 C          35.3863   -0.3797   -8.3542 C.2       11 UNK         0.5703 
     67 N          35.3790    0.9167   -8.6473 N.am      11 UNK        -0.7361 
     68 O          36.4275   -1.0211   -8.4766 O.2       11 UNK        -0.4986 
     69 C69        34.2397   -2.4273   -7.1518 C.3       12 UNK        -0.0947 
     70 S70        34.9120   -2.3094   -5.4571 S.3       12 UNK        -0.2240 
     71 C71        33.8002   -3.3989   -4.5096 C.3       12 UNK         0.0194 
     72 H72        30.6524   -5.4942   -0.4766 H         1 UNK         0.0906 
     73 H73        30.7184   -3.7851   -0.9080 H         1 UNK         0.0906 
     74 H74        29.9690   -4.2831    0.6117 H         1 UNK         0.0906 
     75 H75        29.2081   -3.2134   -2.4153 H         1 UNK         0.3140 
     76 H76        27.4308   -3.0763   -3.7055 H         1 UNK         0.1085 
     77 H77        26.2820   -5.1102   -4.5104 H         1 UNK         0.0836 
     78 H78        26.9476   -6.0252   -3.1982 H         1 UNK         0.0836 
     79 H79        29.3215   -4.3696   -6.8370 H         1 UNK         0.0731 
     80 H80        28.0526   -3.5025   -6.0174 H         1 UNK         0.0731 
     81 H81        31.6355   -4.5722   -5.6818 H         1 UNK         0.1312 
     82 H82        32.7517   -1.2097   -3.2703 H         1 UNK         0.1406 
     83 H83        28.6983   -1.6786   -4.5834 H         1 UNK         0.1631 
     84 H84        30.8128    0.7998   -3.3391 H         1 UNK         0.0717 
     85 H85        30.7301   -0.2456   -1.9564 H         1 UNK         0.0717 
     86 H86        29.0825    2.0675   -4.1886 H         1 UNK         0.0934 
     87 H87        27.4527    2.1831   -3.5941 H         1 UNK         0.0934 
     88 H88        28.4000    0.2092   -5.7242 H         1 UNK         0.0739 
     89 H89        26.0119    0.0824   -4.2316 H         1 UNK         0.3093 
     90 H90        23.7519   -0.9814   -6.5368 H         1 UNK         0.0818 
     91 H91        23.7879   -3.4157   -5.8792 H         1 UNK         0.0819 
     92 H92        24.9351   -3.0284   -7.1521 H         1 UNK         0.0819 
     93 H93        25.5053   -3.2567   -5.5105 H         1 UNK         0.0819 
     94 H94        24.0494   -1.9412   -3.8430 H         1 UNK         0.3041 
     95 H95        22.8581    0.9529   -2.2424 H         1 UNK         0.0784 
     96 H96        20.7144    0.4070   -3.3989 H         1 UNK         0.0793 
     97 H97        20.9961   -1.3107   -3.1507 H         1 UNK         0.0793 
     98 H98        20.7321   -0.2448   -1.7693 H         1 UNK         0.0793 
     99 H99        22.7998   -1.8540   -1.5470 H         1 UNK         0.3024 
    100 H100       25.5787   -1.6038    0.4786 H         1 UNK         0.1171 
    101 H101       24.4390   -3.7689    0.8118 H         1 UNK         0.0786 
    102 H102       23.4893   -3.5618   -0.6505 H         1 UNK         0.0786 
    103 H103       23.2524   -2.4828    0.7213 H         1 UNK         0.0786 
    104 H104       27.0751   -2.6895   -0.7602 H         1 UNK         0.2977 
    105 H105       25.5507    2.2867   -5.9446 H         1 UNK         0.3127 
    106 H106       26.7512    4.3402   -7.5516 H         1 UNK         0.0770 
    107 H107       23.8257    3.4548   -7.2780 H         1 UNK         0.0814 
    108 H108       24.3720    4.9465   -8.0320 H         1 UNK         0.0814 
    109 H109       24.6301    4.6940   -6.3142 H         1 UNK         0.0814 
    110 H110       25.3910    1.1591   -8.3227 H         1 UNK         0.2983 
    111 H111       25.3558    1.6502  -11.2320 H         1 UNK         0.0947 
    112 H112       24.5014   -0.6852  -11.3190 H         1 UNK         0.0806 
    113 H113       23.5447    0.2840  -10.2105 H         1 UNK         0.0806 
    114 H114       24.7284   -0.8631   -9.5853 H         1 UNK         0.0806 
    115 H115       27.1788   -0.2072   -8.7895 H         1 UNK         0.3000 
    116 H116       29.0288   -1.4004  -10.6526 H         1 UNK         0.0850 
    117 H117       30.1040   -2.2313   -8.5685 H         1 UNK         0.0810 
    118 H118       28.3626   -2.4334   -8.4712 H         1 UNK         0.0810 
    119 H119       29.1484   -1.1197   -7.5992 H         1 UNK         0.0810 
    120 H120       28.8769    1.7809   -9.6035 H         1 UNK         0.3040 
    121 H121       30.2055    3.5541   -9.4654 H         1 UNK         0.0766 
    122 H122       32.1256    3.7597  -11.0129 H         1 UNK         0.0812 
    123 H123       30.7869    2.9761  -11.8367 H         1 UNK         0.0812 
    124 H124       32.1573    2.0221  -11.2704 H         1 UNK         0.0812 
    125 H125       30.2313    1.9435   -7.3455 H         1 UNK         0.3205 
    126 H126       31.1982    1.0405   -5.5728 H         1 UNK         0.0754 
    127 H127       32.6917    2.5848   -4.3185 H         1 UNK         0.0769 
    128 H128       31.4140    3.4890   -5.1123 H         1 UNK         0.0769 
    129 H129       33.0406    3.4800   -5.7926 H         1 UNK         0.0769 
    130 H130       32.1832   -0.1526   -7.9369 H         1 UNK         0.2981 
    131 H131       33.6400   -1.3722   -8.8798 H         1 UNK         0.0541 
    132 H132       34.5276    1.4643   -8.5745 H         1 UNK         0.3459 
    133 H133       36.2343    1.3587   -8.9421 H         1 UNK         0.3459 
    134 H134       34.8922   -3.0942   -7.7172 H         1 UNK         0.0612 
    135 H135       33.2784   -2.9386   -7.1216 H         1 UNK         0.0612 
    136 H136       33.8729   -4.4108   -4.9114 H         1 UNK         0.0624 
    137 H137       34.1571   -3.4529   -3.4804 H         1 UNK         0.0624 
@<TRIPOS>BOND
     1    1    2 1    
     2    1   72 1    
     3    1   73 1    
     4    1   74 1    
     5    2    3 2    
     6    2    4 am   BACKBONE|DICT|INTERRES
     7    4    5 1    
     8    4   75 1    
     9    5    6 1    
    10    5   35 1    
    11    5   76 1    
    12    6    7 1    
    13    6   77 1    
    14    6   78 1    
    15    7    8 1    
    16    8    9 1    
    17    8   79 1    
    18    8   80 1    
    19    9   10 ar   
    20    9   14 ar   
    21   10   11 ar   
    22   10   81 1    
    23   11   12 ar   
    24   11   71 1    
    25   12   13 ar   
    26   12   82 1    
    27   13   14 ar   
    28   13   15 1    
    29   14   83 1    
    30   15   16 1    
    31   15   84 1    
    32   15   85 1    
    33   16   17 1    
    34   17   18 1    
    35   17   86 1    
    36   17   87 1    
    37   18   19 1    
    38   18   37 1    
    39   18   88 1    
    40   19   20 am   BACKBONE|DICT|INTERRES
    41   19   89 1    
    42   20   21 2    
    43   20   22 1    
    44   22   23 1    
    45   22   24 1    
    46   22   90 1    
    47   23   91 1    
    48   23   92 1    
    49   23   93 1    
    50   24   25 am   BACKBONE|DICT|INTERRES
    51   24   94 1    
    52   25   26 2    
    53   25   27 1    
    54   27   28 1    
    55   27   29 1    
    56   27   95 1    
    57   28   96 1    
    58   28   97 1    
    59   28   98 1    
    60   29   30 am   BACKBONE|DICT|INTERRES
    61   29   99 1    
    62   30   31 2    
    63   30   32 1    
    64   32   33 1    
    65   32   34 1    
    66   32  100 1    
    67   33  101 1    
    68   33  102 1    
    69   33  103 1    
    70   34   35 am   BACKBONE|DICT|INTERRES
    71   34  104 1    
    72   35   36 2    
    73   37   38 2    
    74   37   39 am   BACKBONE|DICT|INTERRES
    75   39   40 1    
    76   39  105 1    
    77   40   41 1    
    78   40   42 1    
    79   40  106 1    
    80   41  107 1    
    81   41  108 1    
    82   41  109 1    
    83   42   43 2    
    84   42   44 am   BACKBONE|DICT|INTERRES
    85   44   45 1    
    86   44  110 1    
    87   45   46 1    
    88   45   47 1    
    89   45  111 1    
    90   46  112 1    
    91   46  113 1    
    92   46  114 1    
    93   47   48 2    
    94   47   49 am   BACKBONE|DICT|INTERRES
    95   49   50 1    
    96   49  115 1    
    97   50   51 1    
    98   50   52 1    
    99   50  116 1    
   100   51  117 1    
   101   51  118 1    
   102   51  119 1    
   103   52   53 2    
   104   52   54 am   BACKBONE|DICT|INTERRES
   105   54   55 1    
   106   54  120 1    
   107   55   56 1    
   108   55   57 1    
   109   55  121 1    
   110   56  122 1    
   111   56  123 1    
   112   56  124 1    
   113   57   58 2    
   114   57   59 am   BACKBONE|DICT|INTERRES
   115   59   60 1    
   116   59  125 1    
   117   60   61 1    
   118   60   62 1    
   119   60  126 1    
   120   61  127 1    
   121   61  128 1    
   122   61  129 1    
   123   62   63 2    
   124   62   64 am   BACKBONE|DICT|INTERRES
   125   64   65 1    
   126   64  130 1    
   127   65   66 1    
   128   65   69 1    
   129   65  131 1    
   130   66   67 am   BACKBONE|DICT|INTERRES
   131   66   68 2    
   132   67  132 1    
   133   67  133 1    
   134   69   70 1    
   135   69  134 1    
   136   69  135 1    
   137   70   71 1    
   138   71  136 1    
   139   71  137 1    
@<TRIPOS>SUBSTRUCTURE
     1 UNK         1 GROUP             0       ****    0 ROOT    
