@<TRIPOS>MOLECULE
3R137
137   139    1
SMALL
USER_CHARGES


@<TRIPOS>ATOM
      1 CA         29.0682   -6.0268   -1.4521 C.3       0 UNK        -0.2020 
      2 C          28.2320   -4.9904   -0.7162 C.2       0 UNK         0.4855 
      3 O          27.4195   -5.3506    0.1353 O.2       0 UNK        -0.5197 
      4 N          28.4318   -3.7056   -1.0382 N.am      1 UNK        -0.4892 
      5 CA         27.7679   -2.5476   -0.4202 C.3       1 UNK         0.0835 
      6 C6         28.3334   -1.2006   -0.9435 C.3       12 UNK        -0.0855 
      7 S7         30.1553   -1.0838   -0.9378 S.3       12 UNK        -0.2931 
      8 C8         30.4681   -0.3366   -2.5743 C.3       12 UNK         0.0378 
      9 C9         30.7885   -1.3679   -3.6524 C.ar      12 UNK        -0.0802 
     10 C10        31.9804   -1.2558   -4.3738 C.ar      12 UNK        -0.0944 
     11 C11        32.3142   -2.1860   -5.3655 C.ar      12 UNK        -0.0787 
     12 C12        31.4437   -3.2490   -5.6150 C.ar      12 UNK        -0.0862 
     13 C13        30.2408   -3.3689   -4.9155 C.ar      12 UNK        -0.0733 
     14 C14        29.9071   -2.4130   -3.9515 C.ar      12 UNK        -0.0832 
     15 C15        29.3219   -4.5456   -5.2035 C.3       12 UNK         0.0240 
     16 S16        28.3170   -4.2682   -6.6927 S.3       12 UNK        -0.2522 
     17 C17        26.9370   -3.2901   -6.0195 C.3       12 UNK        -0.0967 
     18 CA         26.6090   -2.0448   -6.8759 C.3       5 UNK         0.0660 
     19 N          25.2002   -1.6665   -6.7256 N.am      5 UNK        -0.4015 
     20 C          24.5474   -0.7853   -7.4944 C.2       4 UNK         0.4946 
     21 O          25.0681   -0.1746   -8.4253 O.2       4 UNK        -0.5353 
     22 CA         23.0787   -0.5096   -7.1373 C.3       4 UNK         0.0277 
     23 CB         22.1676   -1.6216   -7.6813 C.3       4 UNK        -0.1981 
     24 N          22.8816   -0.3649   -5.6934 N.am      4 UNK        -0.4209 
     25 C          23.3353    0.6737   -4.9771 C.2       3 UNK         0.4942 
     26 O          23.8930    1.6542   -5.4697 O.2       3 UNK        -0.5208 
     27 CA         23.1668    0.5932   -3.4498 C.3       3 UNK         0.0250 
     28 CB         21.8117    1.1826   -3.0264 C.3       3 UNK        -0.1990 
     29 N          23.3110   -0.7579   -2.8905 N.am      3 UNK        -0.4232 
     30 C          24.4121   -1.5144   -2.9932 C.2       2 UNK         0.4993 
     31 O          25.3984   -1.2059   -3.6687 O.2       2 UNK        -0.5286 
     32 CA         24.4113   -2.8567   -2.2449 C.3       2 UNK         0.0209 
     33 CB         24.0160   -4.0035   -3.1883 C.3       2 UNK        -0.1931 
     34 N          25.7507   -3.1075   -1.7134 N.am      2 UNK        -0.4546 
     35 C          26.2356   -2.5214   -0.6101 C.2       1 UNK         0.5154 
     36 O          25.5347   -1.9199    0.2059 O.2       1 UNK        -0.5181 
     37 C          27.5535   -0.8606   -6.5823 C.2       5 UNK         0.5014 
     38 O          28.5193   -0.6459   -7.3180 O.2       5 UNK        -0.5248 
     39 N          27.2053   -0.0622   -5.5634 N.am      6 UNK        -0.4434 
     40 CA         27.8658    1.1960   -5.2090 C.3       6 UNK         0.0363 
     41 CB         27.2503    1.7334   -3.9066 C.3       6 UNK        -0.1936 
     42 C          27.8153    2.2772   -6.3077 C.2       6 UNK         0.5081 
     43 O          28.6298    3.1984   -6.2639 O.2       6 UNK        -0.5248 
     44 N          26.8816    2.1588   -7.2611 N.am      7 UNK        -0.4718 
     45 CA         26.7874    3.0182   -8.4396 C.3       7 UNK         0.0273 
     46 CB         25.3128    3.3724   -8.6961 C.3       7 UNK        -0.1935 
     47 C          27.4100    2.3423   -9.6713 C.2       7 UNK         0.5018 
     48 O          28.1927    2.9811  -10.3748 O.2       7 UNK        -0.5186 
     49 N          27.0342    1.0806   -9.9275 N.am      8 UNK        -0.4240 
     50 CA         27.4075    0.3228  -11.1234 C.3       8 UNK         0.0235 
     51 CB         26.4943   -0.9070  -11.2600 C.3       8 UNK        -0.2000 
     52 C          28.8838   -0.0974  -11.1572 C.2       8 UNK         0.4941 
     53 O          29.5240    0.0580  -12.1984 O.2       8 UNK        -0.5273 
     54 N          29.3907   -0.6334  -10.0397 N.am      9 UNK        -0.4262 
     55 CA         30.7853   -1.0488   -9.8903 C.3       9 UNK         0.0264 
     56 CB         30.8654   -2.3475   -9.0703 C.3       9 UNK        -0.1955 
     57 C          31.5947    0.0786   -9.2424 C.2       9 UNK         0.5031 
     58 O          32.6109    0.4889   -9.8057 O.2       9 UNK        -0.5390 
     59 N          31.1100    0.5734   -8.0930 N.am      10 UNK        -0.4204 
     60 CA         31.6013    1.7094   -7.2982 C.3       10 UNK         0.0237 
     61 CB         31.4748    3.0287   -8.0853 C.3       10 UNK        -0.1985 
     62 C          33.0152    1.5567   -6.7033 C.2       10 UNK         0.4970 
     63 O          33.1677    1.7536   -5.4983 O.2       10 UNK        -0.4914 
     64 N          34.0031    1.2338   -7.5504 N.am      11 UNK        -0.4285 
     65 CA         35.4357    1.0063   -7.2691 C.3       11 UNK         0.1007 
     66 C          36.1671    2.0659   -6.3859 C.2       11 UNK         0.5703 
     67 N          35.7198    3.3157   -6.3634 N.am      11 UNK        -0.7361 
     68 O          37.1776    1.7734   -5.7500 O.2       11 UNK        -0.4986 
     69 C69        35.7722   -0.4786   -6.9319 C.3       12 UNK        -0.0947 
     70 S70        34.9505   -1.1510   -5.4488 S.3       12 UNK        -0.2240 
     71 C71        33.5631   -2.0424   -6.2318 C.3       12 UNK         0.0194 
     72 H72        29.5869   -6.6655   -0.7377 H         1 UNK         0.0906 
     73 H73        28.4278   -6.6565   -2.0691 H         1 UNK         0.0906 
     74 H74        29.8171   -5.5663   -2.0965 H         1 UNK         0.0906 
     75 H75        29.1818   -3.4731   -1.6730 H         1 UNK         0.3140 
     76 H76        27.9567   -2.6059    0.6540 H         1 UNK         0.1085 
     77 H77        27.9677   -1.0104   -1.9543 H         1 UNK         0.0836 
     78 H78        27.9531   -0.3757   -0.3370 H         1 UNK         0.0836 
     79 H79        29.6214    0.2733   -2.8847 H         1 UNK         0.0731 
     80 H80        31.3019    0.3582   -2.4611 H         1 UNK         0.0731 
     81 H81        32.6419   -0.4269   -4.1678 H         1 UNK         0.1312 
     82 H82        31.6887   -3.9765   -6.3771 H         1 UNK         0.1406 
     83 H83        28.9650   -2.4866   -3.4325 H         1 UNK         0.1631 
     84 H84        28.6757   -4.7588   -4.3509 H         1 UNK         0.0717 
     85 H85        29.9236   -5.4433   -5.3539 H         1 UNK         0.0717 
     86 H86        26.0813   -3.9665   -6.0050 H         1 UNK         0.0934 
     87 H87        27.1143   -3.0192   -4.9775 H         1 UNK         0.0934 
     88 H88        26.7433   -2.3067   -7.9278 H         1 UNK         0.0739 
     89 H89        24.7123   -2.0654   -5.9382 H         1 UNK         0.3093 
     90 H90        22.7926    0.4293   -7.6171 H         1 UNK         0.0818 
     91 H91        21.1164   -1.3941   -7.5034 H         1 UNK         0.0819 
     92 H92        22.2941   -1.7347   -8.7591 H         1 UNK         0.0819 
     93 H93        22.3837   -2.5883   -7.2248 H         1 UNK         0.0819 
     94 H94        22.4119   -1.1160   -5.2091 H         1 UNK         0.3041 
     95 H95        23.9548    1.2081   -3.0096 H         1 UNK         0.0784 
     96 H96        21.6891    2.1959   -3.4122 H         1 UNK         0.0793 
     97 H97        20.9767    0.5886   -3.4002 H         1 UNK         0.0793 
     98 H98        21.7248    1.2402   -1.9412 H         1 UNK         0.0793 
     99 H99        22.5401   -1.0944   -2.3309 H         1 UNK         0.3024 
    100 H100       23.6967   -2.8132   -1.4195 H         1 UNK         0.1171 
    101 H101       23.0162   -3.8494   -3.5963 H         1 UNK         0.0786 
    102 H102       24.0057   -4.9589   -2.6632 H         1 UNK         0.0786 
    103 H103       24.7028   -4.0943   -4.0294 H         1 UNK         0.0786 
    104 H104       26.4062   -3.5613   -2.3307 H         1 UNK         0.2977 
    105 H105       26.4242   -0.3465   -4.9747 H         1 UNK         0.3127 
    106 H106       28.9186    0.9697   -5.0320 H         1 UNK         0.0770 
    107 H107       26.2097    2.0258   -4.0481 H         1 UNK         0.0814 
    108 H108       27.7904    2.6133   -3.5546 H         1 UNK         0.0814 
    109 H109       27.2798    0.9923   -3.1090 H         1 UNK         0.0814 
    110 H110       26.2426    1.3757   -7.2185 H         1 UNK         0.2983 
    111 H111       27.3269    3.9525   -8.2679 H         1 UNK         0.0947 
    112 H112       25.2131    4.0203   -9.5679 H         1 UNK         0.0806 
    113 H113       24.8824    3.9026   -7.8462 H         1 UNK         0.0806 
    114 H114       24.7031    2.4863   -8.8758 H         1 UNK         0.0806 
    115 H115       26.3524    0.6375   -9.3117 H         1 UNK         0.3000 
    116 H116       27.2312    0.9661  -11.9884 H         1 UNK         0.0850 
    117 H117       26.7331   -1.4741  -12.1608 H         1 UNK         0.0810 
    118 H118       25.4460   -0.6156  -11.3285 H         1 UNK         0.0810 
    119 H119       26.5965   -1.5833  -10.4106 H         1 UNK         0.0810 
    120 H120       28.8174   -0.6722   -9.2009 H         1 UNK         0.3040 
    121 H121       31.2215   -1.2545  -10.8703 H         1 UNK         0.0766 
    122 H122       31.8989   -2.6791   -8.9653 H         1 UNK         0.0812 
    123 H123       30.3146   -3.1539   -9.5544 H         1 UNK         0.0812 
    124 H124       30.4572   -2.2274   -8.0674 H         1 UNK         0.0812 
    125 H125       30.2715    0.1285   -7.7255 H         1 UNK         0.3205 
    126 H126       30.9221    1.7730   -6.4475 H         1 UNK         0.0754 
    127 H127       31.7394    3.8819   -7.4595 H         1 UNK         0.0769 
    128 H128       30.4515    3.1856   -8.4274 H         1 UNK         0.0769 
    129 H129       32.1249    3.0502   -8.9603 H         1 UNK         0.0769 
    130 H130       33.7195    1.0768   -8.5160 H         1 UNK         0.2981 
    131 H131       35.9005    1.1743   -8.2411 H         1 UNK         0.0541 
    132 H132       34.8922    3.5706   -6.8773 H         1 UNK         0.3459 
    133 H133       36.2005    4.0019   -5.8036 H         1 UNK         0.3459 
    134 H134       36.8483   -0.6075   -6.8057 H         1 UNK         0.0612 
    135 H135       35.5184   -1.1064   -7.7873 H         1 UNK         0.0612 
    136 H136       33.2666   -1.5206   -7.1413 H         1 UNK         0.0624 
    137 H137       33.9239   -3.0244   -6.5413 H         1 UNK         0.0624 
@<TRIPOS>BOND
     1    1    2 1    
     2    1   72 1    
     3    1   73 1    
     4    1   74 1    
     5    2    3 2    
     6    2    4 am   BACKBONE|DICT|INTERRES
     7    4    5 1    
     8    4   75 1    
     9    5    6 1    
    10    5   35 1    
    11    5   76 1    
    12    6    7 1    
    13    6   77 1    
    14    6   78 1    
    15    7    8 1    
    16    8    9 1    
    17    8   79 1    
    18    8   80 1    
    19    9   10 ar   
    20    9   14 ar   
    21   10   11 ar   
    22   10   81 1    
    23   11   12 ar   
    24   11   71 1    
    25   12   13 ar   
    26   12   82 1    
    27   13   14 ar   
    28   13   15 1    
    29   14   83 1    
    30   15   16 1    
    31   15   84 1    
    32   15   85 1    
    33   16   17 1    
    34   17   18 1    
    35   17   86 1    
    36   17   87 1    
    37   18   19 1    
    38   18   37 1    
    39   18   88 1    
    40   19   20 am   BACKBONE|DICT|INTERRES
    41   19   89 1    
    42   20   21 2    
    43   20   22 1    
    44   22   23 1    
    45   22   24 1    
    46   22   90 1    
    47   23   91 1    
    48   23   92 1    
    49   23   93 1    
    50   24   25 am   BACKBONE|DICT|INTERRES
    51   24   94 1    
    52   25   26 2    
    53   25   27 1    
    54   27   28 1    
    55   27   29 1    
    56   27   95 1    
    57   28   96 1    
    58   28   97 1    
    59   28   98 1    
    60   29   30 am   BACKBONE|DICT|INTERRES
    61   29   99 1    
    62   30   31 2    
    63   30   32 1    
    64   32   33 1    
    65   32   34 1    
    66   32  100 1    
    67   33  101 1    
    68   33  102 1    
    69   33  103 1    
    70   34   35 am   BACKBONE|DICT|INTERRES
    71   34  104 1    
    72   35   36 2    
    73   37   38 2    
    74   37   39 am   BACKBONE|DICT|INTERRES
    75   39   40 1    
    76   39  105 1    
    77   40   41 1    
    78   40   42 1    
    79   40  106 1    
    80   41  107 1    
    81   41  108 1    
    82   41  109 1    
    83   42   43 2    
    84   42   44 am   BACKBONE|DICT|INTERRES
    85   44   45 1    
    86   44  110 1    
    87   45   46 1    
    88   45   47 1    
    89   45  111 1    
    90   46  112 1    
    91   46  113 1    
    92   46  114 1    
    93   47   48 2    
    94   47   49 am   BACKBONE|DICT|INTERRES
    95   49   50 1    
    96   49  115 1    
    97   50   51 1    
    98   50   52 1    
    99   50  116 1    
   100   51  117 1    
   101   51  118 1    
   102   51  119 1    
   103   52   53 2    
   104   52   54 am   BACKBONE|DICT|INTERRES
   105   54   55 1    
   106   54  120 1    
   107   55   56 1    
   108   55   57 1    
   109   55  121 1    
   110   56  122 1    
   111   56  123 1    
   112   56  124 1    
   113   57   58 2    
   114   57   59 am   BACKBONE|DICT|INTERRES
   115   59   60 1    
   116   59  125 1    
   117   60   61 1    
   118   60   62 1    
   119   60  126 1    
   120   61  127 1    
   121   61  128 1    
   122   61  129 1    
   123   62   63 2    
   124   62   64 am   BACKBONE|DICT|INTERRES
   125   64   65 1    
   126   64  130 1    
   127   65   66 1    
   128   65   69 1    
   129   65  131 1    
   130   66   67 am   BACKBONE|DICT|INTERRES
   131   66   68 2    
   132   67  132 1    
   133   67  133 1    
   134   69   70 1    
   135   69  134 1    
   136   69  135 1    
   137   70   71 1    
   138   71  136 1    
   139   71  137 1    
@<TRIPOS>SUBSTRUCTURE
     1 UNK         1 GROUP             0       ****    0 ROOT    
