@<TRIPOS>MOLECULE
3R137
137   139    1
SMALL
USER_CHARGES


@<TRIPOS>ATOM
      1 CA         27.7823   -6.5793    0.2058 C.3       0 UNK        -0.2020 
      2 C          27.2940   -5.2422    0.7405 C.2       0 UNK         0.4855 
      3 O          26.3578   -5.2055    1.5382 O.2       0 UNK        -0.5197 
      4 N          27.9213   -4.1418    0.3064 N.am      1 UNK        -0.4892 
      5 CA         27.5727   -2.7684    0.6934 C.3       1 UNK         0.0835 
      6 C6         28.7458   -1.7870    0.4235 C.3       12 UNK        -0.0855 
      7 S7         29.0907   -1.4847   -1.3473 S.3       12 UNK        -0.2931 
      8 C8         30.4500   -2.6420   -1.6764 C.3       12 UNK         0.0378 
      9 C9         30.5646   -2.9116   -3.1677 C.ar      12 UNK        -0.0802 
     10 C10        31.4795   -2.1977   -3.9440 C.ar      12 UNK        -0.0944 
     11 C11        31.6016   -2.4438   -5.3188 C.ar      12 UNK        -0.0787 
     12 C12        30.7876   -3.4232   -5.9031 C.ar      12 UNK        -0.0862 
     13 C13        29.8682   -4.1482   -5.1361 C.ar      12 UNK        -0.0733 
     14 C14        29.7591   -3.8816   -3.7689 C.ar      12 UNK        -0.0832 
     15 C15        29.0307   -5.2612   -5.7595 C.3       12 UNK         0.0240 
     16 S16        27.9181   -4.6965   -7.0878 S.3       12 UNK        -0.2522 
     17 C17        26.7791   -3.5707   -6.2099 C.3       12 UNK        -0.0967 
     18 CA         26.5043   -2.2827   -7.0252 C.3       5 UNK         0.0660 
     19 N          25.3370   -1.5459   -6.5334 N.am      5 UNK        -0.4015 
     20 C          24.7035   -0.5874   -7.2280 C.2       4 UNK         0.4946 
     21 O          25.0094   -0.2592   -8.3724 O.2       4 UNK        -0.5353 
     22 CA         23.5613    0.1652   -6.5241 C.3       4 UNK         0.0277 
     23 CB         22.2406   -0.6094   -6.6579 C.3       4 UNK        -0.1981 
     24 N          23.8356    0.4302   -5.1119 N.am      4 UNK        -0.4209 
     25 C          24.8404    1.1958   -4.6619 C.2       3 UNK         0.4942 
     26 O          25.5969    1.8323   -5.3941 O.2       3 UNK        -0.5208 
     27 CA         25.0760    1.2074   -3.1409 C.3       3 UNK         0.0250 
     28 CB         24.3080    2.3661   -2.4862 C.3       3 UNK        -0.1990 
     29 N          24.7300   -0.0529   -2.4708 N.am      3 UNK        -0.4232 
     30 C          25.2516   -1.2506   -2.7708 C.2       2 UNK         0.4993 
     31 O          26.0643   -1.4384   -3.6802 O.2       2 UNK        -0.5286 
     32 CA         24.7733   -2.4441   -1.9324 C.3       2 UNK         0.0209 
     33 CB         24.3242   -3.6093   -2.8314 C.3       2 UNK        -0.1931 
     34 N          25.8629   -2.8928   -1.0735 N.am      2 UNK        -0.4546 
     35 C          26.2533   -2.2787    0.0522 C.2       1 UNK         0.5154 
     36 O          25.6301   -1.3520    0.5733 O.2       1 UNK        -0.5181 
     37 C          27.7362   -1.3636   -7.0882 C.2       5 UNK         0.5014 
     38 O          28.4277   -1.3483   -8.1072 O.2       5 UNK        -0.5248 
     39 N          27.9523   -0.5762   -6.0242 N.am      6 UNK        -0.4434 
     40 CA         29.0304    0.4098   -5.9366 C.3       6 UNK         0.0363 
     41 CB         29.0198    1.0652   -4.5477 C.3       6 UNK        -0.1936 
     42 C          28.9806    1.4720   -7.0486 C.2       6 UNK         0.5081 
     43 O          30.0304    1.8245   -7.5920 O.2       6 UNK        -0.5248 
     44 N          27.7661    1.9381   -7.3710 N.am      7 UNK        -0.4718 
     45 CA         27.4878    2.8727   -8.4602 C.3       7 UNK         0.0273 
     46 CB         26.0923    3.4851   -8.2599 C.3       7 UNK        -0.1935 
     47 C          27.5985    2.2324   -9.8546 C.2       7 UNK         0.5018 
     48 O          28.0949    2.8907  -10.7690 O.2       7 UNK        -0.5186 
     49 N          27.1234    0.9857  -10.0074 N.am      8 UNK        -0.4240 
     50 CA         27.1755    0.2313  -11.2659 C.3       8 UNK         0.0235 
     51 CB         26.2728   -1.0097  -11.1785 C.3       8 UNK        -0.2000 
     52 C          28.6021   -0.1739  -11.6683 C.2       8 UNK         0.4941 
     53 O          28.9136   -0.1636  -12.8606 O.2       8 UNK        -0.5273 
     54 N          29.4306   -0.5221  -10.6754 N.am      9 UNK        -0.4262 
     55 CA         30.8628   -0.7687  -10.8203 C.3       9 UNK         0.0264 
     56 CB         31.2915   -1.8354   -9.7943 C.3       9 UNK        -0.1955 
     57 C          31.6311    0.5654  -10.7282 C.2       9 UNK         0.5031 
     58 O          31.4013    1.4469  -11.5585 O.2       9 UNK        -0.5390 
     59 N          32.5453    0.7003   -9.7591 N.am      10 UNK        -0.4204 
     60 CA         33.3825    1.8881   -9.5808 C.3       10 UNK         0.0237 
     61 CB         34.5598    1.8637  -10.5812 C.3       10 UNK        -0.1985 
     62 C          33.8387    2.0372   -8.1215 C.2       10 UNK         0.4970 
     63 O          35.0125    2.3292   -7.8846 O.2       10 UNK        -0.4914 
     64 N          32.9168    1.8362   -7.1711 N.am      11 UNK        -0.4285 
     65 CA         33.1630    2.0500   -5.7319 C.3       11 UNK         0.1007 
     66 C          32.4129    3.2891   -5.1676 C.2       11 UNK         0.5703 
     67 N          31.4461    3.8663   -5.8719 N.am      11 UNK        -0.7361 
     68 O          32.7291    3.7490   -4.0738 O.2       11 UNK        -0.4986 
     69 C69        32.8650    0.7885   -4.8815 C.3       12 UNK        -0.0947 
     70 S70        33.8470   -0.6693   -5.3737 S.3       12 UNK        -0.2240 
     71 C71        32.5828   -1.6826   -6.2172 C.3       12 UNK         0.0194 
     72 H72        26.9766   -7.0888   -0.3221 H         1 UNK         0.0906 
     73 H73        28.6193   -6.4647   -0.4819 H         1 UNK         0.0906 
     74 H74        28.1058   -7.2154    1.0288 H         1 UNK         0.0906 
     75 H75        28.6877   -4.2297   -0.3426 H         1 UNK         0.3140 
     76 H76        27.3989   -2.7717    1.7716 H         1 UNK         0.1085 
     77 H77        29.6529   -2.1396    0.9172 H         1 UNK         0.0836 
     78 H78        28.5264   -0.8218    0.8836 H         1 UNK         0.0836 
     79 H79        31.3798   -2.2265   -1.2849 H         1 UNK         0.0731 
     80 H80        30.2882   -3.5812   -1.1477 H         1 UNK         0.0731 
     81 H81        32.0904   -1.4514   -3.4591 H         1 UNK         0.1312 
     82 H82        30.8704   -3.6285   -6.9619 H         1 UNK         0.1406 
     83 H83        29.0534   -4.4369   -3.1667 H         1 UNK         0.1631 
     84 H84        28.4341   -5.7719   -5.0019 H         1 UNK         0.0717 
     85 H85        29.7049   -6.0136   -6.1706 H         1 UNK         0.0717 
     86 H86        25.8473   -4.1145   -6.0475 H         1 UNK         0.0934 
     87 H87        27.1652   -3.3333   -5.2171 H         1 UNK         0.0934 
     88 H88        26.2743   -2.5847   -8.0495 H         1 UNK         0.0739 
     89 H89        25.1052   -1.6805   -5.5575 H         1 UNK         0.3093 
     90 H90        23.4451    1.1286   -7.0255 H         1 UNK         0.0818 
     91 H91        21.4057   -0.0455   -6.2415 H         1 UNK         0.0819 
     92 H92        22.0076   -0.8020   -7.7062 H         1 UNK         0.0819 
     93 H93        22.2816   -1.5743   -6.1510 H         1 UNK         0.0819 
     94 H94        23.2560   -0.0429   -4.4343 H         1 UNK         0.3041 
     95 H95        26.1427    1.3727   -2.9795 H         1 UNK         0.0784 
     96 H96        24.5654    3.3176   -2.9539 H         1 UNK         0.0793 
     97 H97        23.2285    2.2394   -2.5772 H         1 UNK         0.0793 
     98 H98        24.5490    2.4537   -1.4265 H         1 UNK         0.0793 
     99 H99        24.0899    0.0149   -1.6920 H         1 UNK         0.3024 
    100 H100       23.9261   -2.1416   -1.3126 H         1 UNK         0.1171 
    101 H101       23.5193   -3.3003   -3.4994 H         1 UNK         0.0786 
    102 H102       23.9493   -4.4433   -2.2378 H         1 UNK         0.0786 
    103 H103       25.1391   -3.9830   -3.4527 H         1 UNK         0.0786 
    104 H104       26.4618   -3.6160   -1.4419 H         1 UNK         0.2977 
    105 H105       27.3448   -0.6740   -5.2173 H         1 UNK         0.3127 
    106 H106       29.9638   -0.1389   -6.0550 H         1 UNK         0.0770 
    107 H107       29.8199    1.7985   -4.4501 H         1 UNK         0.0814 
    108 H108       28.0839    1.5882   -4.3560 H         1 UNK         0.0814 
    109 H109       29.1600    0.3241   -3.7611 H         1 UNK         0.0814 
    110 H110       26.9722    1.6476   -6.8067 H         1 UNK         0.2983 
    111 H111       28.2238    3.6783   -8.4089 H         1 UNK         0.0947 
    112 H112       25.8621    4.2025   -9.0487 H         1 UNK         0.0806 
    113 H113       26.0254    4.0144   -7.3092 H         1 UNK         0.0806 
    114 H114       25.3125    2.7223   -8.2717 H         1 UNK         0.0806 
    115 H115       26.6628    0.5316   -9.2246 H         1 UNK         0.3000 
    116 H116       26.7845    0.8761  -12.0559 H         1 UNK         0.0850 
    117 H117       26.3097   -1.5872  -12.1031 H         1 UNK         0.0810 
    118 H118       25.2319   -0.7313  -11.0142 H         1 UNK         0.0810 
    119 H119       26.5768   -1.6715  -10.3669 H         1 UNK         0.0810 
    120 H120       29.0590   -0.5648   -9.7287 H         1 UNK         0.3040 
    121 H121       31.0615   -1.1745  -11.8143 H         1 UNK         0.0766 
    122 H122       30.7857   -2.7812   -9.9899 H         1 UNK         0.0812 
    123 H123       31.0310   -1.5412   -8.7799 H         1 UNK         0.0812 
    124 H124       32.3628   -2.0359   -9.8365 H         1 UNK         0.0812 
    125 H125       32.6898   -0.0549   -9.1045 H         1 UNK         0.3205 
    126 H126       32.7796    2.7747   -9.7892 H         1 UNK         0.0754 
    127 H127       35.1755    2.7592  -10.4885 H         1 UNK         0.0769 
    128 H128       34.2088    1.8269  -11.6125 H         1 UNK         0.0769 
    129 H129       35.2066    1.0012  -10.4171 H         1 UNK         0.0769 
    130 H130       31.9506    1.6675   -7.4381 H         1 UNK         0.2981 
    131 H131       34.2183    2.2782   -5.5739 H         1 UNK         0.0541 
    132 H132       31.1271    3.4620   -6.7406 H         1 UNK         0.3459 
    133 H133       30.9847    4.6785   -5.4953 H         1 UNK         0.3459 
    134 H134       31.8061    0.5440   -4.9208 H         1 UNK         0.0612 
    135 H135       33.0871    0.9810   -3.8304 H         1 UNK         0.0612 
    136 H136       32.0182   -1.0273   -6.8772 H         1 UNK         0.0624 
    137 H137       33.1035   -2.3975   -6.8559 H         1 UNK         0.0624 
@<TRIPOS>BOND
     1    1    2 1    
     2    1   72 1    
     3    1   73 1    
     4    1   74 1    
     5    2    3 2    
     6    2    4 am   BACKBONE|DICT|INTERRES
     7    4    5 1    
     8    4   75 1    
     9    5    6 1    
    10    5   35 1    
    11    5   76 1    
    12    6    7 1    
    13    6   77 1    
    14    6   78 1    
    15    7    8 1    
    16    8    9 1    
    17    8   79 1    
    18    8   80 1    
    19    9   10 ar   
    20    9   14 ar   
    21   10   11 ar   
    22   10   81 1    
    23   11   12 ar   
    24   11   71 1    
    25   12   13 ar   
    26   12   82 1    
    27   13   14 ar   
    28   13   15 1    
    29   14   83 1    
    30   15   16 1    
    31   15   84 1    
    32   15   85 1    
    33   16   17 1    
    34   17   18 1    
    35   17   86 1    
    36   17   87 1    
    37   18   19 1    
    38   18   37 1    
    39   18   88 1    
    40   19   20 am   BACKBONE|DICT|INTERRES
    41   19   89 1    
    42   20   21 2    
    43   20   22 1    
    44   22   23 1    
    45   22   24 1    
    46   22   90 1    
    47   23   91 1    
    48   23   92 1    
    49   23   93 1    
    50   24   25 am   BACKBONE|DICT|INTERRES
    51   24   94 1    
    52   25   26 2    
    53   25   27 1    
    54   27   28 1    
    55   27   29 1    
    56   27   95 1    
    57   28   96 1    
    58   28   97 1    
    59   28   98 1    
    60   29   30 am   BACKBONE|DICT|INTERRES
    61   29   99 1    
    62   30   31 2    
    63   30   32 1    
    64   32   33 1    
    65   32   34 1    
    66   32  100 1    
    67   33  101 1    
    68   33  102 1    
    69   33  103 1    
    70   34   35 am   BACKBONE|DICT|INTERRES
    71   34  104 1    
    72   35   36 2    
    73   37   38 2    
    74   37   39 am   BACKBONE|DICT|INTERRES
    75   39   40 1    
    76   39  105 1    
    77   40   41 1    
    78   40   42 1    
    79   40  106 1    
    80   41  107 1    
    81   41  108 1    
    82   41  109 1    
    83   42   43 2    
    84   42   44 am   BACKBONE|DICT|INTERRES
    85   44   45 1    
    86   44  110 1    
    87   45   46 1    
    88   45   47 1    
    89   45  111 1    
    90   46  112 1    
    91   46  113 1    
    92   46  114 1    
    93   47   48 2    
    94   47   49 am   BACKBONE|DICT|INTERRES
    95   49   50 1    
    96   49  115 1    
    97   50   51 1    
    98   50   52 1    
    99   50  116 1    
   100   51  117 1    
   101   51  118 1    
   102   51  119 1    
   103   52   53 2    
   104   52   54 am   BACKBONE|DICT|INTERRES
   105   54   55 1    
   106   54  120 1    
   107   55   56 1    
   108   55   57 1    
   109   55  121 1    
   110   56  122 1    
   111   56  123 1    
   112   56  124 1    
   113   57   58 2    
   114   57   59 am   BACKBONE|DICT|INTERRES
   115   59   60 1    
   116   59  125 1    
   117   60   61 1    
   118   60   62 1    
   119   60  126 1    
   120   61  127 1    
   121   61  128 1    
   122   61  129 1    
   123   62   63 2    
   124   62   64 am   BACKBONE|DICT|INTERRES
   125   64   65 1    
   126   64  130 1    
   127   65   66 1    
   128   65   69 1    
   129   65  131 1    
   130   66   67 am   BACKBONE|DICT|INTERRES
   131   66   68 2    
   132   67  132 1    
   133   67  133 1    
   134   69   70 1    
   135   69  134 1    
   136   69  135 1    
   137   70   71 1    
   138   71  136 1    
   139   71  137 1    
@<TRIPOS>SUBSTRUCTURE
     1 UNK         1 GROUP             0       ****    0 ROOT    
