@<TRIPOS>MOLECULE
3R137
137   139    1
SMALL
USER_CHARGES


@<TRIPOS>ATOM
      1 CA         27.9616   -5.8255    0.7934 C.3       0 UNK        -0.2020 
      2 C          27.9694   -4.3043    0.8095 C.2       0 UNK         0.4855 
      3 O          27.3567   -3.6980    1.6885 O.2       0 UNK        -0.5197 
      4 N          28.6605   -3.6846   -0.1563 N.am      1 UNK        -0.4892 
      5 CA         28.7736   -2.2260   -0.3048 C.3       1 UNK         0.0835 
      6 C6         29.9378   -1.8205   -1.2408 C.3       12 UNK        -0.0855 
      7 S7         31.5697   -2.4012   -0.6515 S.3       12 UNK        -0.2931 
      8 C8         31.8141   -3.9778   -1.5378 C.3       12 UNK         0.0378 
      9 C9         31.8786   -3.8011   -3.0480 C.ar      12 UNK        -0.0802 
     10 C10        33.0730   -3.4151   -3.6631 C.ar      12 UNK        -0.0944 
     11 C11        33.1402   -3.2725   -5.0521 C.ar      12 UNK        -0.0787 
     12 C12        31.9944   -3.4976   -5.8228 C.ar      12 UNK        -0.0862 
     13 C13        30.7867   -3.8608   -5.2186 C.ar      12 UNK        -0.0733 
     14 C14        30.7470   -4.0418   -3.8332 C.ar      12 UNK        -0.0832 
     15 C15        29.5393   -4.0751   -6.0690 C.3       12 UNK         0.0240 
     16 S16        28.0684   -3.2259   -5.3975 S.3       12 UNK        -0.2522 
     17 C17        26.8691   -3.4849   -6.7554 C.3       12 UNK        -0.0967 
     18 CA         26.2317   -2.2217   -7.4055 C.3       5 UNK         0.0660 
     19 N          25.0015   -1.7870   -6.7388 N.am      5 UNK        -0.4015 
     20 C          23.9469   -1.2762   -7.3961 C.2       4 UNK         0.4946 
     21 O          23.8774   -1.1955   -8.6231 O.2       4 UNK        -0.5353 
     22 CA         22.7633   -0.7573   -6.5610 C.3       4 UNK         0.0277 
     23 CB         21.7518   -1.8860   -6.3037 C.3       4 UNK        -0.1981 
     24 N          23.1579   -0.1597   -5.2859 N.am      4 UNK        -0.4209 
     25 C          23.9144    0.9391   -5.1498 C.2       3 UNK         0.4942 
     26 O          24.3463    1.5988   -6.0937 O.2       3 UNK        -0.5208 
     27 CA         24.2923    1.3367   -3.7123 C.3       3 UNK         0.0250 
     28 CB         23.2370    2.2848   -3.1212 C.3       3 UNK        -0.1990 
     29 N          24.4757    0.1861   -2.8199 N.am      3 UNK        -0.4232 
     30 C          25.3649   -0.7980   -3.0150 C.2       2 UNK         0.4993 
     31 O          26.1310   -0.8503   -3.9806 O.2       2 UNK        -0.5286 
     32 CA         25.3218   -1.9631   -2.0160 C.3       2 UNK         0.0209 
     33 CB         24.6508   -3.1867   -2.6629 C.3       2 UNK        -0.1931 
     34 N          26.6512   -2.3454   -1.5433 N.am      2 UNK        -0.4546 
     35 C          27.4485   -1.5875   -0.7757 C.2       1 UNK         0.5154 
     36 O          27.1598   -0.4483   -0.4052 O.2       1 UNK        -0.5181 
     37 C          27.1815   -1.0235   -7.5929 C.2       5 UNK         0.5014 
     38 O          27.7445   -0.8687   -8.6782 O.2       5 UNK        -0.5248 
     39 N          27.3036   -0.1649   -6.5662 N.am      6 UNK        -0.4434 
     40 CA         28.1434    1.0374   -6.5740 C.3       6 UNK         0.0363 
     41 CB         28.1328    1.6955   -5.1878 C.3       6 UNK        -0.1936 
     42 C          27.7700    2.0548   -7.6634 C.2       6 UNK         0.5081 
     43 O          28.6614    2.7253   -8.1793 O.2       6 UNK        -0.5248 
     44 N          26.4891    2.1052   -8.0539 N.am      7 UNK        -0.4718 
     45 CA         25.9860    2.8790   -9.1943 C.3       7 UNK         0.0273 
     46 CB         24.4625    2.6984   -9.2907 C.3       7 UNK        -0.1935 
     47 C          26.6508    2.5346  -10.5436 C.2       7 UNK         0.5018 
     48 O          26.6852    3.3960  -11.4237 O.2       7 UNK        -0.5186 
     49 N          27.1691    1.3058  -10.6801 N.am      8 UNK        -0.4240 
     50 CA         27.9321    0.8456  -11.8395 C.3       8 UNK         0.0235 
     51 CB         27.3591   -0.4982  -12.3213 C.3       8 UNK        -0.2000 
     52 C          29.4255    0.7046  -11.5065 C.2       8 UNK         0.4941 
     53 O          30.2623    1.1434  -12.2960 O.2       8 UNK        -0.5273 
     54 N          29.7386    0.0745  -10.3658 N.am      9 UNK        -0.4262 
     55 CA         31.0949   -0.3250   -9.9838 C.3       9 UNK         0.0264 
     56 CB         31.0028   -1.5328   -9.0351 C.3       9 UNK        -0.1955 
     57 C          31.9406    0.7848   -9.3378 C.2       9 UNK         0.5031 
     58 O          33.1523    0.6011   -9.2228 O.2       9 UNK        -0.5390 
     59 N          31.3139    1.8765   -8.8750 N.am      10 UNK        -0.4204 
     60 CA         31.8742    2.9805   -8.0784 C.3       10 UNK         0.0237 
     61 CB         33.0611    3.6765   -8.7753 C.3       10 UNK        -0.1985 
     62 C          32.2141    2.5754   -6.6325 C.2       10 UNK         0.4970 
     63 O          31.7853    3.2605   -5.7036 O.2       10 UNK        -0.4914 
     64 N          32.9569    1.4756   -6.4622 N.am      11 UNK        -0.4285 
     65 CA         33.2775    0.8633   -5.1631 C.3       11 UNK         0.1007 
     66 C          32.0657    0.2075   -4.4437 C.2       11 UNK         0.5703 
     67 N          31.0742   -0.2975   -5.1664 N.am      11 UNK        -0.7361 
     68 O          32.0200    0.1852   -3.2174 O.2       11 UNK        -0.4986 
     69 C69        34.4928   -0.0995   -5.2552 C.3       12 UNK        -0.0947 
     70 S70        34.3840   -1.3230   -6.6092 S.3       12 UNK        -0.2240 
     71 C71        34.4569   -2.9121   -5.7255 C.3       12 UNK         0.0194 
     72 H72        28.3756   -6.2121    1.7243 H         1 UNK         0.0906 
     73 H73        26.9408   -6.1941    0.6959 H         1 UNK         0.0906 
     74 H74        28.5482   -6.2298   -0.0314 H         1 UNK         0.0906 
     75 H75        29.1588   -4.2345   -0.8385 H         1 UNK         0.3140 
     76 H76        28.9835   -1.8108    0.6838 H         1 UNK         0.1085 
     77 H77        29.7550   -2.1523   -2.2617 H         1 UNK         0.0836 
     78 H78        29.9993   -0.7319   -1.3034 H         1 UNK         0.0836 
     79 H79        32.7447   -4.4282   -1.1890 H         1 UNK         0.0731 
     80 H80        31.0276   -4.6820   -1.2668 H         1 UNK         0.0731 
     81 H81        33.9515   -3.2363   -3.0583 H         1 UNK         0.1312 
     82 H82        32.0478   -3.3841   -6.8960 H         1 UNK         0.1406 
     83 H83        29.8219   -4.3485   -3.3657 H         1 UNK         0.1631 
     84 H84        29.3365   -5.1444   -6.1404 H         1 UNK         0.0717 
     85 H85        29.7129   -3.7178   -7.0854 H         1 UNK         0.0717 
     86 H86        27.3672   -4.0561   -7.5406 H         1 UNK         0.0934 
     87 H87        26.0856   -4.1504   -6.3896 H         1 UNK         0.0934 
     88 H88        25.9591   -2.5348   -8.4163 H         1 UNK         0.0739 
     89 H89        25.0204   -1.7644   -5.7276 H         1 UNK         0.3093 
     90 H90        22.2675    0.0195   -7.1474 H         1 UNK         0.0818 
     91 H91        20.8619   -1.5143   -5.7953 H         1 UNK         0.0819 
     92 H92        21.4216   -2.3344   -7.2420 H         1 UNK         0.0819 
     93 H93        22.1796   -2.6836   -5.6948 H         1 UNK         0.0819 
     94 H94        22.8435   -0.6256   -4.4477 H         1 UNK         0.3041 
     95 H95        25.2411    1.8721   -3.7546 H         1 UNK         0.0784 
     96 H96        23.0992    3.1595   -3.7587 H         1 UNK         0.0793 
     97 H97        22.2655    1.7992   -3.0201 H         1 UNK         0.0793 
     98 H98        23.5358    2.6483   -2.1377 H         1 UNK         0.0793 
     99 H99        23.8788    0.1508   -2.0057 H         1 UNK         0.3024 
    100 H100       24.7351   -1.6643   -1.1444 H         1 UNK         0.1171 
    101 H101       23.6437   -2.9475   -3.0071 H         1 UNK         0.0786 
    102 H102       24.5610   -4.0108   -1.9548 H         1 UNK         0.0786 
    103 H103       25.2142   -3.5461   -3.5257 H         1 UNK         0.0786 
    104 H104       26.9825   -3.2588   -1.8143 H         1 UNK         0.2977 
    105 H105       26.8402   -0.3880   -5.6873 H         1 UNK         0.3127 
    106 H106       29.1613    0.7103   -6.7871 H         1 UNK         0.0770 
    107 H107       27.1566    2.1175   -4.9547 H         1 UNK         0.0814 
    108 H108       28.8598    2.5077   -5.1409 H         1 UNK         0.0814 
    109 H109       28.3913    0.9838   -4.4033 H         1 UNK         0.0814 
    110 H110       25.8000    1.5910   -7.5134 H         1 UNK         0.2983 
    111 H111       26.1970    3.9312   -8.9926 H         1 UNK         0.0947 
    112 H112       24.0525    3.2568  -10.1335 H         1 UNK         0.0806 
    113 H113       23.9629    3.0600   -8.3919 H         1 UNK         0.0806 
    114 H114       24.1897    1.6508   -9.4270 H         1 UNK         0.0806 
    115 H115       27.1138    0.6692   -9.8924 H         1 UNK         0.3000 
    116 H116       27.8451    1.5593  -12.6617 H         1 UNK         0.0850 
    117 H117       27.9162   -0.8753  -13.1801 H         1 UNK         0.0810 
    118 H118       26.3189   -0.3944  -12.6303 H         1 UNK         0.0810 
    119 H119       27.4006   -1.2616  -11.5430 H         1 UNK         0.0810 
    120 H120       28.9858   -0.2722   -9.7711 H         1 UNK         0.3040 
    121 H121       31.6258   -0.6469  -10.8825 H         1 UNK         0.0766 
    122 H122       31.9971   -1.8920   -8.7664 H         1 UNK         0.0812 
    123 H123       30.4750   -2.3646   -9.5020 H         1 UNK         0.0812 
    124 H124       30.4813   -1.2847   -8.1104 H         1 UNK         0.0812 
    125 H125       30.3048    1.9296   -8.9819 H         1 UNK         0.3205 
    126 H126       31.0760    3.7208   -8.0105 H         1 UNK         0.0754 
    127 H127       33.3544    4.5744   -8.2301 H         1 UNK         0.0769 
    128 H128       32.8003    3.9827   -9.7883 H         1 UNK         0.0769 
    129 H129       33.9417    3.0367   -8.8340 H         1 UNK         0.0769 
    130 H130       33.2652    0.9723   -7.2891 H         1 UNK         0.2981 
    131 H131       33.5888    1.6809   -4.5098 H         1 UNK         0.0541 
    132 H132       31.1449   -0.3159   -6.1677 H         1 UNK         0.3459 
    133 H133       30.3042   -0.7443   -4.6972 H         1 UNK         0.3459 
    134 H134       34.6585   -0.6080   -4.3035 H         1 UNK         0.0612 
    135 H135       35.3959    0.4865   -5.4307 H         1 UNK         0.0612 
    136 H136       34.7046   -3.6945   -6.4440 H         1 UNK         0.0624 
    137 H137       35.2772   -2.8889   -5.0065 H         1 UNK         0.0624 
@<TRIPOS>BOND
     1    1    2 1    
     2    1   72 1    
     3    1   73 1    
     4    1   74 1    
     5    2    3 2    
     6    2    4 am   BACKBONE|DICT|INTERRES
     7    4    5 1    
     8    4   75 1    
     9    5    6 1    
    10    5   35 1    
    11    5   76 1    
    12    6    7 1    
    13    6   77 1    
    14    6   78 1    
    15    7    8 1    
    16    8    9 1    
    17    8   79 1    
    18    8   80 1    
    19    9   10 ar   
    20    9   14 ar   
    21   10   11 ar   
    22   10   81 1    
    23   11   12 ar   
    24   11   71 1    
    25   12   13 ar   
    26   12   82 1    
    27   13   14 ar   
    28   13   15 1    
    29   14   83 1    
    30   15   16 1    
    31   15   84 1    
    32   15   85 1    
    33   16   17 1    
    34   17   18 1    
    35   17   86 1    
    36   17   87 1    
    37   18   19 1    
    38   18   37 1    
    39   18   88 1    
    40   19   20 am   BACKBONE|DICT|INTERRES
    41   19   89 1    
    42   20   21 2    
    43   20   22 1    
    44   22   23 1    
    45   22   24 1    
    46   22   90 1    
    47   23   91 1    
    48   23   92 1    
    49   23   93 1    
    50   24   25 am   BACKBONE|DICT|INTERRES
    51   24   94 1    
    52   25   26 2    
    53   25   27 1    
    54   27   28 1    
    55   27   29 1    
    56   27   95 1    
    57   28   96 1    
    58   28   97 1    
    59   28   98 1    
    60   29   30 am   BACKBONE|DICT|INTERRES
    61   29   99 1    
    62   30   31 2    
    63   30   32 1    
    64   32   33 1    
    65   32   34 1    
    66   32  100 1    
    67   33  101 1    
    68   33  102 1    
    69   33  103 1    
    70   34   35 am   BACKBONE|DICT|INTERRES
    71   34  104 1    
    72   35   36 2    
    73   37   38 2    
    74   37   39 am   BACKBONE|DICT|INTERRES
    75   39   40 1    
    76   39  105 1    
    77   40   41 1    
    78   40   42 1    
    79   40  106 1    
    80   41  107 1    
    81   41  108 1    
    82   41  109 1    
    83   42   43 2    
    84   42   44 am   BACKBONE|DICT|INTERRES
    85   44   45 1    
    86   44  110 1    
    87   45   46 1    
    88   45   47 1    
    89   45  111 1    
    90   46  112 1    
    91   46  113 1    
    92   46  114 1    
    93   47   48 2    
    94   47   49 am   BACKBONE|DICT|INTERRES
    95   49   50 1    
    96   49  115 1    
    97   50   51 1    
    98   50   52 1    
    99   50  116 1    
   100   51  117 1    
   101   51  118 1    
   102   51  119 1    
   103   52   53 2    
   104   52   54 am   BACKBONE|DICT|INTERRES
   105   54   55 1    
   106   54  120 1    
   107   55   56 1    
   108   55   57 1    
   109   55  121 1    
   110   56  122 1    
   111   56  123 1    
   112   56  124 1    
   113   57   58 2    
   114   57   59 am   BACKBONE|DICT|INTERRES
   115   59   60 1    
   116   59  125 1    
   117   60   61 1    
   118   60   62 1    
   119   60  126 1    
   120   61  127 1    
   121   61  128 1    
   122   61  129 1    
   123   62   63 2    
   124   62   64 am   BACKBONE|DICT|INTERRES
   125   64   65 1    
   126   64  130 1    
   127   65   66 1    
   128   65   69 1    
   129   65  131 1    
   130   66   67 am   BACKBONE|DICT|INTERRES
   131   66   68 2    
   132   67  132 1    
   133   67  133 1    
   134   69   70 1    
   135   69  134 1    
   136   69  135 1    
   137   70   71 1    
   138   71  136 1    
   139   71  137 1    
@<TRIPOS>SUBSTRUCTURE
     1 UNK         1 GROUP             0       ****    0 ROOT    
