@<TRIPOS>MOLECULE
3R137
137   139    1
SMALL
USER_CHARGES


@<TRIPOS>ATOM
      1 CA         24.1036   -5.2523   -2.1068 C.3       0 UNK        -0.2020 
      2 C          24.9540   -4.2003   -1.4123 C.2       0 UNK         0.4855 
      3 O          24.4147   -3.2535   -0.8382 O.2       0 UNK        -0.5197 
      4 N          26.2820   -4.3555   -1.4697 N.am      1 UNK        -0.4892 
      5 CA         27.2946   -3.4447   -0.9240 C.3       1 UNK         0.0835 
      6 C6         28.7372   -4.0194   -1.0338 C.3       12 UNK        -0.0855 
      7 S7         29.0520   -5.0729   -2.4991 S.3       12 UNK        -0.2931 
      8 C8         30.7513   -4.6122   -2.9548 C.3       12 UNK         0.0378 
      9 C9         30.7738   -3.4362   -3.9175 C.ar      12 UNK        -0.0802 
     10 C10        30.4525   -3.6367   -5.2611 C.ar      12 UNK        -0.0944 
     11 C11        30.4887   -2.5764   -6.1693 C.ar      12 UNK        -0.0787 
     12 C12        30.8688   -1.3058   -5.7235 C.ar      12 UNK        -0.0862 
     13 C13        31.1759   -1.0841   -4.3733 C.ar      12 UNK        -0.0733 
     14 C14        31.1278   -2.1585   -3.4786 C.ar      12 UNK        -0.0832 
     15 C15        31.5784    0.2945   -3.8494 C.3       12 UNK         0.0240 
     16 S16        30.6042    1.6848   -4.5211 S.3       12 UNK        -0.2522 
     17 C17        28.8930    1.1808   -4.1311 C.3       12 UNK        -0.0967 
     18 CA         28.1220    0.7791   -5.4164 C.3       5 UNK         0.0660 
     19 N          27.3192   -0.4348   -5.2312 N.am      5 UNK        -0.4015 
     20 C          26.7089   -1.1082   -6.2182 C.2       4 UNK         0.4946 
     21 O          26.7473   -0.7778   -7.4030 O.2       4 UNK        -0.5353 
     22 CA         25.8488   -2.3112   -5.8046 C.3       4 UNK         0.0277 
     23 CB         26.7143   -3.5524   -5.5292 C.3       4 UNK        -0.1981 
     24 N          25.0367   -1.9813   -4.6319 N.am      4 UNK        -0.4209 
     25 C          23.9331   -1.2185   -4.6828 C.2       3 UNK         0.4942 
     26 O          23.4129   -0.8410   -5.7325 O.2       3 UNK        -0.5208 
     27 CA         23.3227   -0.7627   -3.3453 C.3       3 UNK         0.0250 
     28 CB         22.1953   -1.7091   -2.9049 C.3       3 UNK        -0.1990 
     29 N          24.3206   -0.6358   -2.2781 N.am      3 UNK        -0.4232 
     30 C          25.2490    0.3335   -2.2446 C.2       2 UNK         0.4993 
     31 O          25.3202    1.2311   -3.0817 O.2       2 UNK        -0.5286 
     32 CA         26.3115    0.2741   -1.1328 C.3       2 UNK         0.0209 
     33 CB         25.8552    1.0846    0.0902 C.3       2 UNK        -0.1931 
     34 N          26.6519   -1.0890   -0.7173 N.am      2 UNK        -0.4546 
     35 C          27.1575   -2.0312   -1.5255 C.2       1 UNK         0.5154 
     36 O          27.4346   -1.8283   -2.7087 O.2       1 UNK        -0.5181 
     37 C          27.3329    1.9585   -6.0282 C.2       5 UNK         0.5014 
     38 O          27.9018    2.7506   -6.7796 O.2       5 UNK        -0.5248 
     39 N          26.0295    2.0409   -5.7299 N.am      6 UNK        -0.4434 
     40 CA         25.0900    2.9773   -6.3476 C.3       6 UNK         0.0363 
     41 CB         23.7715    2.9627   -5.5577 C.3       6 UNK        -0.1936 
     42 C          24.8229    2.6948   -7.8394 C.2       6 UNK         0.5081 
     43 O          24.4805    3.6291   -8.5651 O.2       6 UNK        -0.5248 
     44 N          24.9641    1.4342   -8.2756 N.am      7 UNK        -0.4718 
     45 CA         24.7775    1.0224   -9.6687 C.3       7 UNK         0.0273 
     46 CB         24.3013   -0.4388   -9.7254 C.3       7 UNK        -0.1935 
     47 C          26.0582    1.2201  -10.4943 C.2       7 UNK         0.5018 
     48 O          25.9753    1.7180  -11.6181 O.2       7 UNK        -0.5186 
     49 N          27.2129    0.8498   -9.9279 N.am      8 UNK        -0.4240 
     50 CA         28.5352    1.0452  -10.5189 C.3       8 UNK         0.0235 
     51 CB         28.9103   -0.1658  -11.3922 C.3       8 UNK        -0.2000 
     52 C          29.5314    1.2384   -9.3749 C.2       8 UNK         0.4941 
     53 O          29.6163    0.3706   -8.5103 O.2       8 UNK        -0.5273 
     54 N          30.2453    2.3689   -9.3627 N.am      9 UNK        -0.4262 
     55 CA         31.1473    2.7358   -8.2707 C.3       9 UNK         0.0264 
     56 CB         31.4154    4.2488   -8.3255 C.3       9 UNK        -0.1955 
     57 C          32.4723    1.9563   -8.3094 C.2       9 UNK         0.5031 
     58 O          33.0317    1.7671   -9.3922 O.2       9 UNK        -0.5390 
     59 N          32.9740    1.6092   -7.1138 N.am      10 UNK        -0.4204 
     60 CA         34.3139    1.0825   -6.8157 C.3       10 UNK         0.0237 
     61 CB         35.3571    2.2123   -6.9533 C.3       10 UNK        -0.1985 
     62 C          34.6963   -0.1771   -7.6192 C.2       10 UNK         0.4970 
     63 O          35.6914   -0.1654   -8.3475 O.2       10 UNK        -0.4914 
     64 N          33.9030   -1.2448   -7.4675 N.am      11 UNK        -0.4285 
     65 CA         34.1111   -2.5334   -8.1551 C.3       11 UNK         0.1007 
     66 C          35.3164   -3.3702   -7.6339 C.2       11 UNK         0.5703 
     67 N          35.9079   -3.0486   -6.4891 N.am      11 UNK        -0.7361 
     68 O          35.7271   -4.3267   -8.2869 O.2       11 UNK        -0.4986 
     69 C69        32.8229   -3.3972   -8.1978 C.3       12 UNK        -0.0947 
     70 S70        31.3899   -2.4671   -8.8383 S.3       12 UNK        -0.2240 
     71 C71        30.0801   -2.8193   -7.6191 C.3       12 UNK         0.0194 
     72 H72        23.7221   -4.8658   -3.0513 H         1 UNK         0.0906 
     73 H73        24.6725   -6.1585   -2.3147 H         1 UNK         0.0906 
     74 H74        23.2546   -5.5247   -1.4800 H         1 UNK         0.0906 
     75 H75        26.6720   -5.1324   -1.9869 H         1 UNK         0.3140 
     76 H76        27.0782   -3.3564    0.1431 H         1 UNK         0.1085 
     77 H77        29.4810   -3.2218   -0.9821 H         1 UNK         0.0836 
     78 H78        28.9323   -4.6441   -0.1607 H         1 UNK         0.0836 
     79 H79        31.2279   -5.4702   -3.4314 H         1 UNK         0.0731 
     80 H80        31.3378   -4.4025   -2.0590 H         1 UNK         0.0731 
     81 H81        30.1632   -4.6238   -5.5948 H         1 UNK         0.1312 
     82 H82        30.9000   -0.4888   -6.4302 H         1 UNK         0.1406 
     83 H83        31.3719   -2.0030   -2.4367 H         1 UNK         0.1631 
     84 H84        31.4917    0.3261   -2.7621 H         1 UNK         0.0717 
     85 H85        32.6318    0.4604   -4.0729 H         1 UNK         0.0717 
     86 H86        28.9353    0.3484   -3.4271 H         1 UNK         0.0934 
     87 H87        28.3933    1.9875   -3.5909 H         1 UNK         0.0934 
     88 H88        28.8487    0.5001   -6.1744 H         1 UNK         0.0739 
     89 H89        27.2881   -0.8250   -4.2924 H         1 UNK         0.3093 
     90 H90        25.1811   -2.5483   -6.6361 H         1 UNK         0.0818 
     91 H91        27.2651   -3.8431   -6.4245 H         1 UNK         0.0819 
     92 H92        27.4511   -3.3792   -4.7450 H         1 UNK         0.0819 
     93 H93        26.1044   -4.4054   -5.2321 H         1 UNK         0.0819 
     94 H94        25.4368   -2.2016   -3.7300 H         1 UNK         0.3041 
     95 H95        22.8825    0.2235   -3.5095 H         1 UNK         0.0784 
     96 H96        21.4086   -1.7521   -3.6594 H         1 UNK         0.0793 
     97 H97        22.5527   -2.7264   -2.7526 H         1 UNK         0.0793 
     98 H98        21.7347   -1.3729   -1.9758 H         1 UNK         0.0793 
     99 H99        24.3420   -1.3711   -1.5767 H         1 UNK         0.3024 
    100 H100       27.2188    0.7347   -1.5291 H         1 UNK         0.1171 
    101 H101       26.6359    1.1319    0.8497 H         1 UNK         0.0786 
    102 H102       25.6163    2.1118   -0.1900 H         1 UNK         0.0786 
    103 H103       24.9633    0.6563    0.5495 H         1 UNK         0.0786 
    104 H104       26.4048   -1.3439    0.2286 H         1 UNK         0.2977 
    105 H105       25.6626    1.4422   -4.9955 H         1 UNK         0.3127 
    106 H106       25.5199    3.9786   -6.2756 H         1 UNK         0.0770 
    107 H107       23.3020    1.9785   -5.5775 H         1 UNK         0.0814 
    108 H108       23.0575    3.6738   -5.9753 H         1 UNK         0.0814 
    109 H109       23.9300    3.2376   -4.5147 H         1 UNK         0.0814 
    110 H110       25.3085    0.7250   -7.6380 H         1 UNK         0.2983 
    111 H111       23.9953    1.6388  -10.1181 H         1 UNK         0.0947 
    112 H112       24.0811   -0.7339  -10.7521 H         1 UNK         0.0806 
    113 H113       23.3905   -0.5815   -9.1435 H         1 UNK         0.0806 
    114 H114       25.0520   -1.1313   -9.3449 H         1 UNK         0.0806 
    115 H115       27.2058    0.4329   -8.9990 H         1 UNK         0.3000 
    116 H116       28.5305    1.9441  -11.1394 H         1 UNK         0.0850 
    117 H117       29.9070   -0.0446  -11.8181 H         1 UNK         0.0810 
    118 H118       28.2131   -0.2905  -12.2207 H         1 UNK         0.0810 
    119 H119       28.9136   -1.0906  -10.8132 H         1 UNK         0.0810 
    120 H120       30.1608    3.0236  -10.1261 H         1 UNK         0.3040 
    121 H121       30.6367    2.5201   -7.3304 H         1 UNK         0.0766 
    122 H122       31.9052    4.5391   -9.2559 H         1 UNK         0.0812 
    123 H123       32.0634    4.5605   -7.5051 H         1 UNK         0.0812 
    124 H124       30.4895    4.8180   -8.2384 H         1 UNK         0.0812 
    125 H125       32.4017    1.8058   -6.3027 H         1 UNK         0.3205 
    126 H126       34.3041    0.7804   -5.7680 H         1 UNK         0.0754 
    127 H127       36.3501    1.8679   -6.6613 H         1 UNK         0.0769 
    128 H128       35.1098    3.0605   -6.3148 H         1 UNK         0.0769 
    129 H129       35.4263    2.5756   -7.9795 H         1 UNK         0.0769 
    130 H130       33.0911   -1.1891   -6.8712 H         1 UNK         0.2981 
    131 H131       34.3561   -2.2934   -9.1917 H         1 UNK         0.0541 
    132 H132       35.5789   -2.2689   -5.9439 H         1 UNK         0.3459 
    133 H133       36.6898   -3.5968   -6.1672 H         1 UNK         0.3459 
    134 H134       32.6038   -3.7992   -7.2085 H         1 UNK         0.0612 
    135 H135       32.9674   -4.2627   -8.8469 H         1 UNK         0.0612 
    136 H136       29.2142   -2.1977   -7.8487 H         1 UNK         0.0624 
    137 H137       29.7552   -3.8511   -7.7598 H         1 UNK         0.0624 
@<TRIPOS>BOND
     1    1    2 1    
     2    1   72 1    
     3    1   73 1    
     4    1   74 1    
     5    2    3 2    
     6    2    4 am   BACKBONE|DICT|INTERRES
     7    4    5 1    
     8    4   75 1    
     9    5    6 1    
    10    5   35 1    
    11    5   76 1    
    12    6    7 1    
    13    6   77 1    
    14    6   78 1    
    15    7    8 1    
    16    8    9 1    
    17    8   79 1    
    18    8   80 1    
    19    9   10 ar   
    20    9   14 ar   
    21   10   11 ar   
    22   10   81 1    
    23   11   12 ar   
    24   11   71 1    
    25   12   13 ar   
    26   12   82 1    
    27   13   14 ar   
    28   13   15 1    
    29   14   83 1    
    30   15   16 1    
    31   15   84 1    
    32   15   85 1    
    33   16   17 1    
    34   17   18 1    
    35   17   86 1    
    36   17   87 1    
    37   18   19 1    
    38   18   37 1    
    39   18   88 1    
    40   19   20 am   BACKBONE|DICT|INTERRES
    41   19   89 1    
    42   20   21 2    
    43   20   22 1    
    44   22   23 1    
    45   22   24 1    
    46   22   90 1    
    47   23   91 1    
    48   23   92 1    
    49   23   93 1    
    50   24   25 am   BACKBONE|DICT|INTERRES
    51   24   94 1    
    52   25   26 2    
    53   25   27 1    
    54   27   28 1    
    55   27   29 1    
    56   27   95 1    
    57   28   96 1    
    58   28   97 1    
    59   28   98 1    
    60   29   30 am   BACKBONE|DICT|INTERRES
    61   29   99 1    
    62   30   31 2    
    63   30   32 1    
    64   32   33 1    
    65   32   34 1    
    66   32  100 1    
    67   33  101 1    
    68   33  102 1    
    69   33  103 1    
    70   34   35 am   BACKBONE|DICT|INTERRES
    71   34  104 1    
    72   35   36 2    
    73   37   38 2    
    74   37   39 am   BACKBONE|DICT|INTERRES
    75   39   40 1    
    76   39  105 1    
    77   40   41 1    
    78   40   42 1    
    79   40  106 1    
    80   41  107 1    
    81   41  108 1    
    82   41  109 1    
    83   42   43 2    
    84   42   44 am   BACKBONE|DICT|INTERRES
    85   44   45 1    
    86   44  110 1    
    87   45   46 1    
    88   45   47 1    
    89   45  111 1    
    90   46  112 1    
    91   46  113 1    
    92   46  114 1    
    93   47   48 2    
    94   47   49 am   BACKBONE|DICT|INTERRES
    95   49   50 1    
    96   49  115 1    
    97   50   51 1    
    98   50   52 1    
    99   50  116 1    
   100   51  117 1    
   101   51  118 1    
   102   51  119 1    
   103   52   53 2    
   104   52   54 am   BACKBONE|DICT|INTERRES
   105   54   55 1    
   106   54  120 1    
   107   55   56 1    
   108   55   57 1    
   109   55  121 1    
   110   56  122 1    
   111   56  123 1    
   112   56  124 1    
   113   57   58 2    
   114   57   59 am   BACKBONE|DICT|INTERRES
   115   59   60 1    
   116   59  125 1    
   117   60   61 1    
   118   60   62 1    
   119   60  126 1    
   120   61  127 1    
   121   61  128 1    
   122   61  129 1    
   123   62   63 2    
   124   62   64 am   BACKBONE|DICT|INTERRES
   125   64   65 1    
   126   64  130 1    
   127   65   66 1    
   128   65   69 1    
   129   65  131 1    
   130   66   67 am   BACKBONE|DICT|INTERRES
   131   66   68 2    
   132   67  132 1    
   133   67  133 1    
   134   69   70 1    
   135   69  134 1    
   136   69  135 1    
   137   70   71 1    
   138   71  136 1    
   139   71  137 1    
@<TRIPOS>SUBSTRUCTURE
     1 UNK         1 GROUP             0       ****    0 ROOT    
