@<TRIPOS>MOLECULE
3R137
137   139    1
SMALL
USER_CHARGES


@<TRIPOS>ATOM
      1 CA         23.3794   -5.0799   -3.4774 C.3       0 UNK        -0.2020 
      2 C          24.3607   -4.3992   -2.5358 C.2       0 UNK         0.4855 
      3 O          23.9613   -3.5329   -1.7571 O.2       0 UNK        -0.5197 
      4 N          25.6449   -4.7737   -2.6124 N.am      1 UNK        -0.4892 
      5 CA         26.7521   -4.2225   -1.8222 C.3       1 UNK         0.0835 
      6 C6         28.0623   -4.9912   -2.1183 C.3       12 UNK        -0.0855 
      7 S7         29.3888   -4.6236   -0.9208 S.3       12 UNK        -0.2931 
      8 C8         30.8783   -4.8599   -1.9450 C.3       12 UNK         0.0378 
      9 C9         31.0102   -3.8051   -3.0365 C.ar      12 UNK        -0.0802 
     10 C10        30.8741   -4.1565   -4.3827 C.ar      12 UNK        -0.0944 
     11 C11        31.0133   -3.1983   -5.3919 C.ar      12 UNK        -0.0787 
     12 C12        31.2852   -1.8710   -5.0350 C.ar      12 UNK        -0.0862 
     13 C13        31.4207   -1.5026   -3.6913 C.ar      12 UNK        -0.0733 
     14 C14        31.2868   -2.4784   -2.6995 C.ar      12 UNK        -0.0832 
     15 C15        31.7283   -0.0631   -3.2835 C.3       12 UNK         0.0240 
     16 S16        30.7733    1.2125   -4.1756 S.3       12 UNK        -0.2522 
     17 C17        29.0535    0.6228   -4.0402 C.3       12 UNK        -0.0967 
     18 CA         28.4037    0.4420   -5.4385 C.3       5 UNK         0.0660 
     19 N          27.4018   -0.6279   -5.4404 N.am      5 UNK        -0.4015 
     20 C          26.7089   -1.0496   -6.5084 C.2       4 UNK         0.4946 
     21 O          26.8767   -0.6303   -7.6516 O.2       4 UNK        -0.5353 
     22 CA         25.5834   -2.0616   -6.2459 C.3       4 UNK         0.0277 
     23 CB         26.1287   -3.4967   -6.1553 C.3       4 UNK        -0.1981 
     24 N          24.8315   -1.7181   -5.0367 N.am      4 UNK        -0.4209 
     25 C          24.0187   -0.6544   -4.9391 C.2       3 UNK         0.4942 
     26 O          23.7508    0.0883   -5.8824 O.2       3 UNK        -0.5208 
     27 CA         23.4491   -0.3306   -3.5483 C.3       3 UNK         0.0250 
     28 CB         22.1268   -1.0754   -3.3086 C.3       3 UNK        -0.1990 
     29 N          24.4005   -0.6289   -2.4742 N.am      3 UNK        -0.4232 
     30 C          25.5173    0.0834   -2.2565 C.2       2 UNK         0.4993 
     31 O          25.8237    1.0815   -2.9088 O.2       2 UNK        -0.5286 
     32 CA         26.4851   -0.4261   -1.1725 C.3       2 UNK         0.0209 
     33 CB         26.1248    0.1731    0.1957 C.3       2 UNK        -0.1931 
     34 N          26.5360   -1.8883   -1.0702 N.am      2 UNK        -0.4546 
     35 C          26.8937   -2.7058   -2.0701 C.2       1 UNK         0.5154 
     36 O          27.2505   -2.3030   -3.1781 O.2       1 UNK        -0.5181 
     37 C          27.8361    1.7771   -5.9686 C.2       5 UNK         0.5014 
     38 O          28.4667    2.4258   -6.8042 O.2       5 UNK        -0.5248 
     39 N          26.6417    2.1519   -5.4864 N.am      6 UNK        -0.4434 
     40 CA         25.9038    3.3356   -5.9289 C.3       6 UNK         0.0363 
     41 CB         24.7126    3.5779   -4.9883 C.3       6 UNK        -0.1936 
     42 C          25.4309    3.2456   -7.3910 C.2       6 UNK         0.5081 
     43 O          25.4876    4.2497   -8.1016 O.2       6 UNK        -0.5248 
     44 N          24.9611    2.0624   -7.8105 N.am      7 UNK        -0.4718 
     45 CA         24.4673    1.8052   -9.1648 C.3       7 UNK         0.0273 
     46 CB         23.6489    0.5038   -9.1773 C.3       7 UNK        -0.1935 
     47 C          25.5837    1.7517  -10.2212 C.2       7 UNK         0.5018 
     48 O          25.4183    2.3333  -11.2948 O.2       7 UNK        -0.5186 
     49 N          26.6740    1.0373   -9.9146 N.am      8 UNK        -0.4240 
     50 CA         27.8140    0.8265  -10.8040 C.3       8 UNK         0.0235 
     51 CB         28.2883   -0.6381  -10.6836 C.3       8 UNK        -0.2000 
     52 C          28.9151    1.8599  -10.5140 C.2       8 UNK         0.4941 
     53 O          28.8166    2.9966  -10.9793 O.2       8 UNK        -0.5273 
     54 N          29.9570    1.4432   -9.7892 N.am      9 UNK        -0.4262 
     55 CA         31.1496    2.2083   -9.4412 C.3       9 UNK         0.0264 
     56 CB         32.1003    2.2798  -10.6557 C.3       9 UNK        -0.1955 
     57 C          31.8026    1.5303   -8.2269 C.2       9 UNK         0.5031 
     58 O          31.2201    0.5992   -7.6713 O.2       9 UNK        -0.5390 
     59 N          33.0061    1.9843   -7.8495 N.am      10 UNK        -0.4204 
     60 CA         33.7809    1.4972   -6.6989 C.3       10 UNK         0.0237 
     61 CB         35.0195    2.3912   -6.5196 C.3       10 UNK        -0.1985 
     62 C          34.1964    0.0106   -6.7458 C.2       10 UNK         0.4970 
     63 O          34.5298   -0.5391   -5.6951 O.2       10 UNK        -0.4914 
     64 N          34.1801   -0.6007   -7.9387 N.am      11 UNK        -0.4285 
     65 CA         34.5243   -2.0090   -8.2052 C.3       11 UNK         0.1007 
     66 C          36.0203   -2.3386   -7.9059 C.2       11 UNK         0.5703 
     67 N          36.3758   -3.6009   -7.7022 N.am      11 UNK        -0.7361 
     68 O          36.8840   -1.4622   -7.9165 O.2       11 UNK        -0.4986 
     69 C69        33.5106   -3.0144   -7.5737 C.3       12 UNK        -0.0947 
     70 S70        31.7885   -2.6866   -8.0825 S.3       12 UNK        -0.2240 
     71 C71        30.8315   -3.6320   -6.8477 C.3       12 UNK         0.0194 
     72 H72        22.5168   -5.4445   -2.9202 H         1 UNK         0.0906 
     73 H73        23.0266   -4.3743   -4.2289 H         1 UNK         0.0906 
     74 H74        23.8303   -5.9278   -3.9928 H         1 UNK         0.0906 
     75 H75        25.9064   -5.4810   -3.2844 H         1 UNK         0.3140 
     76 H76        26.4996   -4.3801   -0.7712 H         1 UNK         0.1085 
     77 H77        27.8820   -6.0665   -2.0730 H         1 UNK         0.0836 
     78 H78        28.4002   -4.7878   -3.1357 H         1 UNK         0.0836 
     79 H79        31.7579   -4.8166   -1.3012 H         1 UNK         0.0731 
     80 H80        30.8634   -5.8641   -2.3719 H         1 UNK         0.0731 
     81 H81        30.6572   -5.1826   -4.6468 H         1 UNK         0.1312 
     82 H82        31.3907   -1.1175   -5.8020 H         1 UNK         0.1406 
     83 H83        31.3932   -2.2091   -1.6573 H         1 UNK         0.1631 
     84 H84        32.7907    0.1228   -3.4459 H         1 UNK         0.0717 
     85 H85        31.5518    0.0754   -2.2158 H         1 UNK         0.0717 
     86 H86        29.0493   -0.3215   -3.4958 H         1 UNK         0.0934 
     87 H87        28.4899    1.3160   -3.4131 H         1 UNK         0.0934 
     88 H88        29.1695    0.1124   -6.1424 H         1 UNK         0.0739 
     89 H89        27.2476   -1.1050   -4.5544 H         1 UNK         0.3093 
     90 H90        24.8950   -2.0199   -7.0928 H         1 UNK         0.0818 
     91 H91        25.3266   -4.2168   -5.9947 H         1 UNK         0.0819 
     92 H92        26.6315   -3.7749   -7.0825 H         1 UNK         0.0819 
     93 H93        26.8541   -3.6149   -5.3510 H         1 UNK         0.0819 
     94 H94        25.0571   -2.2322   -4.1977 H         1 UNK         0.3041 
     95 H95        23.2374    0.7407   -3.5219 H         1 UNK         0.0784 
     96 H96        21.3912   -0.8135   -4.0705 H         1 UNK         0.0793 
     97 H97        22.2546   -2.1568   -3.3404 H         1 UNK         0.0793 
     98 H98        21.6963   -0.8173   -2.3410 H         1 UNK         0.0793 
     99 H99        24.2356   -1.4715   -1.9319 H         1 UNK         0.3024 
    100 H100       27.4849   -0.0810   -1.4437 H         1 UNK         0.1171 
    101 H101       26.1012    1.2630    0.1496 H         1 UNK         0.0786 
    102 H102       26.8578   -0.1008    0.9548 H         1 UNK         0.0786 
    103 H103       25.1442   -0.1601    0.5381 H         1 UNK         0.0786 
    104 H104       26.2161   -2.2929   -0.2017 H         1 UNK         0.2977 
    105 H105       26.2252    1.6071   -4.7353 H         1 UNK         0.3127 
    106 H106       26.5766    4.1924   -5.8517 H         1 UNK         0.0770 
    107 H107       24.0082    2.7457   -5.0070 H         1 UNK         0.0814 
    108 H108       24.1649    4.4762   -5.2759 H         1 UNK         0.0814 
    109 H109       25.0417    3.7138   -3.9578 H         1 UNK         0.0814 
    110 H110       24.8930    1.2984   -7.1462 H         1 UNK         0.2983 
    111 H111       23.7970    2.6232   -9.4385 H         1 UNK         0.0947 
    112 H112       22.7965    0.5657   -8.5005 H         1 UNK         0.0806 
    113 H113       23.2574    0.2970  -10.1742 H         1 UNK         0.0806 
    114 H114       24.2512   -0.3544   -8.8774 H         1 UNK         0.0806 
    115 H115       26.7224    0.5778   -9.0053 H         1 UNK         0.3000 
    116 H116       27.5058    0.9784  -11.8407 H         1 UNK         0.0850 
    117 H117       29.1477   -0.8270  -11.3285 H         1 UNK         0.0810 
    118 H118       27.5014   -1.3276  -10.9895 H         1 UNK         0.0810 
    119 H119       28.5741   -0.9033   -9.6651 H         1 UNK         0.0810 
    120 H120       29.9235    0.5347   -9.3410 H         1 UNK         0.3040 
    121 H121       30.8497    3.2147   -9.1421 H         1 UNK         0.0766 
    122 H122       32.9718    2.9013  -10.4498 H         1 UNK         0.0812 
    123 H123       31.6048    2.7154  -11.5235 H         1 UNK         0.0812 
    124 H124       32.4596    1.2906  -10.9425 H         1 UNK         0.0812 
    125 H125       33.4130    2.7494   -8.3678 H         1 UNK         0.3205 
    126 H126       33.1518    1.6163   -5.8161 H         1 UNK         0.0754 
    127 H127       35.6002    2.0849   -5.6481 H         1 UNK         0.0769 
    128 H128       34.7399    3.4339   -6.3672 H         1 UNK         0.0769 
    129 H129       35.6814    2.3408   -7.3851 H         1 UNK         0.0769 
    130 H130       33.9098   -0.0585   -8.7441 H         1 UNK         0.2981 
    131 H131       34.4419   -2.1131   -9.2874 H         1 UNK         0.0541 
    132 H132       35.6940   -4.3425   -7.7100 H         1 UNK         0.3459 
    133 H133       37.3463   -3.8135   -7.5319 H         1 UNK         0.3459 
    134 H134       33.5808   -2.9886   -6.4855 H         1 UNK         0.0612 
    135 H135       33.7375   -4.0380   -7.8738 H         1 UNK         0.0612 
    136 H136       31.0905   -4.6860   -6.9596 H         1 UNK         0.0624 
    137 H137       29.7734   -3.5446   -7.0978 H         1 UNK         0.0624 
@<TRIPOS>BOND
     1    1    2 1    
     2    1   72 1    
     3    1   73 1    
     4    1   74 1    
     5    2    3 2    
     6    2    4 am   BACKBONE|DICT|INTERRES
     7    4    5 1    
     8    4   75 1    
     9    5    6 1    
    10    5   35 1    
    11    5   76 1    
    12    6    7 1    
    13    6   77 1    
    14    6   78 1    
    15    7    8 1    
    16    8    9 1    
    17    8   79 1    
    18    8   80 1    
    19    9   10 ar   
    20    9   14 ar   
    21   10   11 ar   
    22   10   81 1    
    23   11   12 ar   
    24   11   71 1    
    25   12   13 ar   
    26   12   82 1    
    27   13   14 ar   
    28   13   15 1    
    29   14   83 1    
    30   15   16 1    
    31   15   84 1    
    32   15   85 1    
    33   16   17 1    
    34   17   18 1    
    35   17   86 1    
    36   17   87 1    
    37   18   19 1    
    38   18   37 1    
    39   18   88 1    
    40   19   20 am   BACKBONE|DICT|INTERRES
    41   19   89 1    
    42   20   21 2    
    43   20   22 1    
    44   22   23 1    
    45   22   24 1    
    46   22   90 1    
    47   23   91 1    
    48   23   92 1    
    49   23   93 1    
    50   24   25 am   BACKBONE|DICT|INTERRES
    51   24   94 1    
    52   25   26 2    
    53   25   27 1    
    54   27   28 1    
    55   27   29 1    
    56   27   95 1    
    57   28   96 1    
    58   28   97 1    
    59   28   98 1    
    60   29   30 am   BACKBONE|DICT|INTERRES
    61   29   99 1    
    62   30   31 2    
    63   30   32 1    
    64   32   33 1    
    65   32   34 1    
    66   32  100 1    
    67   33  101 1    
    68   33  102 1    
    69   33  103 1    
    70   34   35 am   BACKBONE|DICT|INTERRES
    71   34  104 1    
    72   35   36 2    
    73   37   38 2    
    74   37   39 am   BACKBONE|DICT|INTERRES
    75   39   40 1    
    76   39  105 1    
    77   40   41 1    
    78   40   42 1    
    79   40  106 1    
    80   41  107 1    
    81   41  108 1    
    82   41  109 1    
    83   42   43 2    
    84   42   44 am   BACKBONE|DICT|INTERRES
    85   44   45 1    
    86   44  110 1    
    87   45   46 1    
    88   45   47 1    
    89   45  111 1    
    90   46  112 1    
    91   46  113 1    
    92   46  114 1    
    93   47   48 2    
    94   47   49 am   BACKBONE|DICT|INTERRES
    95   49   50 1    
    96   49  115 1    
    97   50   51 1    
    98   50   52 1    
    99   50  116 1    
   100   51  117 1    
   101   51  118 1    
   102   51  119 1    
   103   52   53 2    
   104   52   54 am   BACKBONE|DICT|INTERRES
   105   54   55 1    
   106   54  120 1    
   107   55   56 1    
   108   55   57 1    
   109   55  121 1    
   110   56  122 1    
   111   56  123 1    
   112   56  124 1    
   113   57   58 2    
   114   57   59 am   BACKBONE|DICT|INTERRES
   115   59   60 1    
   116   59  125 1    
   117   60   61 1    
   118   60   62 1    
   119   60  126 1    
   120   61  127 1    
   121   61  128 1    
   122   61  129 1    
   123   62   63 2    
   124   62   64 am   BACKBONE|DICT|INTERRES
   125   64   65 1    
   126   64  130 1    
   127   65   66 1    
   128   65   69 1    
   129   65  131 1    
   130   66   67 am   BACKBONE|DICT|INTERRES
   131   66   68 2    
   132   67  132 1    
   133   67  133 1    
   134   69   70 1    
   135   69  134 1    
   136   69  135 1    
   137   70   71 1    
   138   71  136 1    
   139   71  137 1    
@<TRIPOS>SUBSTRUCTURE
     1 UNK         1 GROUP             0       ****    0 ROOT    
