@<TRIPOS>MOLECULE
3R137
137   139    1
SMALL
USER_CHARGES


@<TRIPOS>ATOM
      1 CA         24.2936   -6.2182   -3.8247 C.3       0 UNK        -0.2020 
      2 C          25.2890   -5.2194   -3.2571 C.2       0 UNK         0.4855 
      3 O          25.5145   -4.1728   -3.8661 O.2       0 UNK        -0.5197 
      4 N          25.8632   -5.5149   -2.0815 N.am      1 UNK        -0.4892 
      5 CA         26.8961   -4.7580   -1.3473 C.3       1 UNK         0.0835 
      6 C6         28.2086   -4.5961   -2.1638 C.3       12 UNK        -0.0855 
      7 S7         29.6863   -4.6348   -1.0991 S.3       12 UNK        -0.2931 
      8 C8         31.0132   -4.3425   -2.3158 C.3       12 UNK         0.0378 
      9 C9         31.0178   -2.9265   -2.8850 C.ar      12 UNK        -0.0802 
     10 C10        31.1536   -2.7281   -4.2629 C.ar      12 UNK        -0.0944 
     11 C11        31.2097   -1.4374   -4.7974 C.ar      12 UNK        -0.0787 
     12 C12        31.1260   -0.3399   -3.9338 C.ar      12 UNK        -0.0862 
     13 C13        30.9487   -0.5175   -2.5589 C.ar      12 UNK        -0.0733 
     14 C14        30.9168   -1.8150   -2.0408 C.ar      12 UNK        -0.0832 
     15 C15        30.7872    0.6763   -1.6191 C.3       12 UNK         0.0240 
     16 S16        29.7250    2.0169   -2.2710 S.3       12 UNK        -0.2522 
     17 C17        28.2098    1.1294   -2.7720 C.3       12 UNK        -0.0967 
     18 CA         28.0284    1.1346   -4.3151 C.3       5 UNK         0.0660 
     19 N          27.4170   -0.1005   -4.8048 N.am      5 UNK        -0.4015 
     20 C          27.4447   -0.5197   -6.0776 C.2       4 UNK         0.4946 
     21 O          28.0258    0.0705   -6.9882 O.2       4 UNK        -0.5353 
     22 CA         26.6701   -1.8083   -6.3959 C.3       4 UNK         0.0277 
     23 CB         27.5626   -3.0371   -6.1569 C.3       4 UNK        -0.1981 
     24 N          25.4377   -1.9381   -5.6136 N.am      4 UNK        -0.4209 
     25 C          24.3971   -1.0942   -5.6898 C.2       3 UNK         0.4942 
     26 O          24.3398   -0.1481   -6.4735 O.2       3 UNK        -0.5208 
     27 CA         23.2584   -1.2976   -4.6771 C.3       3 UNK         0.0250 
     28 CB         22.3149   -2.4177   -5.1430 C.3       3 UNK        -0.1990 
     29 N          23.7391   -1.5918   -3.3242 N.am      3 UNK        -0.4232 
     30 C          24.5311   -0.7942   -2.5899 C.2       2 UNK         0.4993 
     31 O          24.9287    0.3101   -2.9592 O.2       2 UNK        -0.5286 
     32 CA         25.0319   -1.3716   -1.2641 C.3       2 UNK         0.0209 
     33 CB         23.9135   -1.4216   -0.2069 C.3       2 UNK        -0.1931 
     34 N          25.5764   -2.6996   -1.5265 N.am      2 UNK        -0.4546 
     35 C          26.4135   -3.4059   -0.7661 C.2       1 UNK         0.5154 
     36 O          26.7950   -3.0410    0.3468 O.2       1 UNK        -0.5181 
     37 C          27.2612    2.3735   -4.8109 C.2       5 UNK         0.5014 
     38 O          27.8864    3.3208   -5.2882 O.2       5 UNK        -0.5248 
     39 N          25.9229    2.3253   -4.7336 N.am      6 UNK        -0.4434 
     40 CA         25.0165    3.3533   -5.2522 C.3       6 UNK         0.0363 
     41 CB         23.5754    3.0282   -4.8283 C.3       6 UNK        -0.1936 
     42 C          25.1134    3.5228   -6.7792 C.2       6 UNK         0.5081 
     43 O          25.1065    4.6544   -7.2644 O.2       6 UNK        -0.5248 
     44 N          25.2278    2.4020   -7.5048 N.am      7 UNK        -0.4718 
     45 CA         25.4417    2.3664   -8.9542 C.3       7 UNK         0.0273 
     46 CB         25.1133    0.9561   -9.4713 C.3       7 UNK        -0.1935 
     47 C          26.8689    2.7600   -9.3785 C.2       7 UNK         0.5018 
     48 O          27.0570    3.1429  -10.5338 O.2       7 UNK        -0.5186 
     49 N          27.8364    2.6310   -8.4568 N.am      8 UNK        -0.4240 
     50 CA         29.2860    2.7636   -8.6455 C.3       8 UNK         0.0235 
     51 CB         29.6748    4.2195   -8.9765 C.3       8 UNK        -0.2000 
     52 C          29.8097    1.7416   -9.6716 C.2       8 UNK         0.4941 
     53 O          30.4582    2.1138  -10.6530 O.2       8 UNK        -0.5273 
     54 N          29.4758    0.4646   -9.4416 N.am      9 UNK        -0.4262 
     55 CA         29.7277   -0.6736  -10.3306 C.3       9 UNK         0.0264 
     56 CB         28.8160   -1.8367   -9.8981 C.3       9 UNK        -0.1955 
     57 C          31.2140   -1.0850  -10.4049 C.2       9 UNK         0.5031 
     58 O          31.5615   -2.2076  -10.0294 O.2       9 UNK        -0.5390 
     59 N          32.0630   -0.1648  -10.8843 N.am      10 UNK        -0.4204 
     60 CA         33.5202   -0.2385  -11.0805 C.3       10 UNK         0.0237 
     61 CB         33.9094   -1.3576  -12.0670 C.3       10 UNK        -0.1985 
     62 C          34.3209   -0.3365   -9.7701 C.2       10 UNK         0.4970 
     63 O          35.2056    0.4888   -9.5410 O.2       10 UNK        -0.4914 
     64 N          33.9717   -1.3195   -8.9344 N.am      11 UNK        -0.4285 
     65 CA         34.4290   -1.5135   -7.5487 C.3       11 UNK         0.1007 
     66 C          35.9354   -1.8787   -7.3871 C.2       11 UNK         0.5703 
     67 N          36.6240   -2.3131   -8.4361 N.am      11 UNK        -0.7361 
     68 O          36.4838   -1.8016   -6.2898 O.2       11 UNK        -0.4986 
     69 C69        33.9772   -0.3675   -6.5914 C.3       12 UNK        -0.0947 
     70 S70        32.2579    0.2007   -6.8441 S.3       12 UNK        -0.2240 
     71 C71        31.2950   -1.2528   -6.3103 C.3       12 UNK         0.0194 
     72 H72        24.6104   -6.5358   -4.8175 H         1 UNK         0.0906 
     73 H73        24.2010   -7.1050   -3.1982 H         1 UNK         0.0906 
     74 H74        23.3097   -5.7586   -3.9122 H         1 UNK         0.0906 
     75 H75        25.5849   -6.3731   -1.6243 H         1 UNK         0.3140 
     76 H76        27.1130   -5.3867   -0.4816 H         1 UNK         0.1085 
     77 H77        28.2019   -3.6809   -2.7590 H         1 UNK         0.0836 
     78 H78        28.3123   -5.4139   -2.8790 H         1 UNK         0.0836 
     79 H79        30.9281   -5.0831   -3.1127 H         1 UNK         0.0731 
     80 H80        31.9742   -4.5215   -1.8320 H         1 UNK         0.0731 
     81 H81        31.2173   -3.5823   -4.9233 H         1 UNK         0.1312 
     82 H82        31.1686    0.6625   -4.3342 H         1 UNK         0.1406 
     83 H83        30.8051   -1.9643   -0.9753 H         1 UNK         0.1631 
     84 H84        31.7742    1.0862   -1.4021 H         1 UNK         0.0717 
     85 H85        30.3708    0.3527   -0.6639 H         1 UNK         0.0717 
     86 H86        28.2701    0.1067   -2.3966 H         1 UNK         0.0934 
     87 H87        27.3518    1.5691   -2.2591 H         1 UNK         0.0934 
     88 H88        29.0113    1.1837   -4.7849 H         1 UNK         0.0739 
     89 H89        26.8682   -0.6248   -4.1409 H         1 UNK         0.3093 
     90 H90        26.3961   -1.7789   -7.4524 H         1 UNK         0.0818 
     91 H91        28.4798   -2.9808   -6.7429 H         1 UNK         0.0819 
     92 H92        27.0527   -3.9582   -6.4396 H         1 UNK         0.0819 
     93 H93        27.8548   -3.1264   -5.1103 H         1 UNK         0.0819 
     94 H94        25.3951   -2.7193   -4.9608 H         1 UNK         0.3041 
     95 H95        22.6895   -0.3668   -4.6289 H         1 UNK         0.0784 
     96 H96        21.9307   -2.2123   -6.1433 H         1 UNK         0.0793 
     97 H97        22.8201   -3.3839   -5.1800 H         1 UNK         0.0793 
     98 H98        21.4540   -2.5133   -4.4810 H         1 UNK         0.0793 
     99 H99        23.4540   -2.4775   -2.9330 H         1 UNK         0.3024 
    100 H100       25.8364   -0.7285   -0.8999 H         1 UNK         0.1171 
    101 H101       24.2950   -1.7553    0.7582 H         1 UNK         0.0786 
    102 H102       23.4764   -0.4337   -0.0556 H         1 UNK         0.0786 
    103 H103       23.1076   -2.0966   -0.4969 H         1 UNK         0.0786 
    104 H104       25.3926   -3.0926   -2.4482 H         1 UNK         0.2977 
    105 H105       25.4932    1.5285   -4.2672 H         1 UNK         0.3127 
    106 H106       25.3006    4.3034   -4.7950 H         1 UNK         0.0770 
    107 H107       23.2346    2.0817   -5.2489 H         1 UNK         0.0814 
    108 H108       22.8857    3.8027   -5.1662 H         1 UNK         0.0814 
    109 H109       23.4857    2.9631   -3.7438 H         1 UNK         0.0814 
    110 H110       25.1322    1.5039   -7.0357 H         1 UNK         0.2983 
    111 H111       24.7532    3.0739   -9.4214 H         1 UNK         0.0947 
    112 H112       25.2295    0.8978  -10.5543 H         1 UNK         0.0806 
    113 H113       24.0851    0.6775   -9.2395 H         1 UNK         0.0806 
    114 H114       25.7705    0.2049   -9.0310 H         1 UNK         0.0806 
    115 H115       27.5586    2.2698   -7.5530 H         1 UNK         0.3000 
    116 H116       29.7453    2.5060   -7.6893 H         1 UNK         0.0850 
    117 H117       30.7589    4.3312   -9.0186 H         1 UNK         0.0810 
    118 H118       29.3061    4.9082   -8.2163 H         1 UNK         0.0810 
    119 H119       29.2783    4.5390   -9.9406 H         1 UNK         0.0810 
    120 H120       28.9591    0.2640   -8.5861 H         1 UNK         0.3040 
    121 H121       29.4299   -0.3814  -11.3397 H         1 UNK         0.0766 
    122 H122       27.7653   -1.5462   -9.9115 H         1 UNK         0.0812 
    123 H123       29.0570   -2.1777   -8.8915 H         1 UNK         0.0812 
    124 H124       28.9250   -2.6908  -10.5677 H         1 UNK         0.0812 
    125 H125       31.6498    0.7510  -11.0586 H         1 UNK         0.3205 
    126 H126       33.7975    0.7103  -11.5430 H         1 UNK         0.0754 
    127 H127       34.9817   -1.3438  -12.2663 H         1 UNK         0.0769 
    128 H128       33.4012   -1.2343  -13.0234 H         1 UNK         0.0769 
    129 H129       33.6643   -2.3489  -11.6847 H         1 UNK         0.0769 
    130 H130       33.1983   -1.9102   -9.2320 H         1 UNK         0.2981 
    131 H131       33.9171   -2.4172   -7.2202 H         1 UNK         0.0541 
    132 H132       36.1825   -2.3874   -9.3385 H         1 UNK         0.3459 
    133 H133       37.5950   -2.5584   -8.3239 H         1 UNK         0.3459 
    134 H134       34.0851   -0.6765   -5.5502 H         1 UNK         0.0612 
    135 H135       34.6250    0.5015   -6.7183 H         1 UNK         0.0612 
    136 H136       30.2841   -1.1413   -6.6956 H         1 UNK         0.0624 
    137 H137       31.6929   -2.1472   -6.7891 H         1 UNK         0.0624 
@<TRIPOS>BOND
     1    1    2 1    
     2    1   72 1    
     3    1   73 1    
     4    1   74 1    
     5    2    3 2    
     6    2    4 am   BACKBONE|DICT|INTERRES
     7    4    5 1    
     8    4   75 1    
     9    5    6 1    
    10    5   35 1    
    11    5   76 1    
    12    6    7 1    
    13    6   77 1    
    14    6   78 1    
    15    7    8 1    
    16    8    9 1    
    17    8   79 1    
    18    8   80 1    
    19    9   10 ar   
    20    9   14 ar   
    21   10   11 ar   
    22   10   81 1    
    23   11   12 ar   
    24   11   71 1    
    25   12   13 ar   
    26   12   82 1    
    27   13   14 ar   
    28   13   15 1    
    29   14   83 1    
    30   15   16 1    
    31   15   84 1    
    32   15   85 1    
    33   16   17 1    
    34   17   18 1    
    35   17   86 1    
    36   17   87 1    
    37   18   19 1    
    38   18   37 1    
    39   18   88 1    
    40   19   20 am   BACKBONE|DICT|INTERRES
    41   19   89 1    
    42   20   21 2    
    43   20   22 1    
    44   22   23 1    
    45   22   24 1    
    46   22   90 1    
    47   23   91 1    
    48   23   92 1    
    49   23   93 1    
    50   24   25 am   BACKBONE|DICT|INTERRES
    51   24   94 1    
    52   25   26 2    
    53   25   27 1    
    54   27   28 1    
    55   27   29 1    
    56   27   95 1    
    57   28   96 1    
    58   28   97 1    
    59   28   98 1    
    60   29   30 am   BACKBONE|DICT|INTERRES
    61   29   99 1    
    62   30   31 2    
    63   30   32 1    
    64   32   33 1    
    65   32   34 1    
    66   32  100 1    
    67   33  101 1    
    68   33  102 1    
    69   33  103 1    
    70   34   35 am   BACKBONE|DICT|INTERRES
    71   34  104 1    
    72   35   36 2    
    73   37   38 2    
    74   37   39 am   BACKBONE|DICT|INTERRES
    75   39   40 1    
    76   39  105 1    
    77   40   41 1    
    78   40   42 1    
    79   40  106 1    
    80   41  107 1    
    81   41  108 1    
    82   41  109 1    
    83   42   43 2    
    84   42   44 am   BACKBONE|DICT|INTERRES
    85   44   45 1    
    86   44  110 1    
    87   45   46 1    
    88   45   47 1    
    89   45  111 1    
    90   46  112 1    
    91   46  113 1    
    92   46  114 1    
    93   47   48 2    
    94   47   49 am   BACKBONE|DICT|INTERRES
    95   49   50 1    
    96   49  115 1    
    97   50   51 1    
    98   50   52 1    
    99   50  116 1    
   100   51  117 1    
   101   51  118 1    
   102   51  119 1    
   103   52   53 2    
   104   52   54 am   BACKBONE|DICT|INTERRES
   105   54   55 1    
   106   54  120 1    
   107   55   56 1    
   108   55   57 1    
   109   55  121 1    
   110   56  122 1    
   111   56  123 1    
   112   56  124 1    
   113   57   58 2    
   114   57   59 am   BACKBONE|DICT|INTERRES
   115   59   60 1    
   116   59  125 1    
   117   60   61 1    
   118   60   62 1    
   119   60  126 1    
   120   61  127 1    
   121   61  128 1    
   122   61  129 1    
   123   62   63 2    
   124   62   64 am   BACKBONE|DICT|INTERRES
   125   64   65 1    
   126   64  130 1    
   127   65   66 1    
   128   65   69 1    
   129   65  131 1    
   130   66   67 am   BACKBONE|DICT|INTERRES
   131   66   68 2    
   132   67  132 1    
   133   67  133 1    
   134   69   70 1    
   135   69  134 1    
   136   69  135 1    
   137   70   71 1    
   138   71  136 1    
   139   71  137 1    
@<TRIPOS>SUBSTRUCTURE
     1 UNK         1 GROUP             0       ****    0 ROOT    
