@<TRIPOS>MOLECULE
3R137
137   139    1
SMALL
USER_CHARGES


@<TRIPOS>ATOM
      1 CA         25.8113   -6.2686   -4.5346 C.3       0 UNK        -0.2020 
      2 C          25.8275   -5.3880   -3.2949 C.2       0 UNK         0.4855 
      3 O          24.7809   -4.8862   -2.8835 O.2       0 UNK        -0.5197 
      4 N          27.0096   -5.1815   -2.7025 N.am      1 UNK        -0.4892 
      5 CA         27.2460   -4.3170   -1.5417 C.3       1 UNK         0.0835 
      6 C6         28.6826   -4.4592   -0.9700 C.3       12 UNK        -0.0855 
      7 S7         30.0009   -4.6562   -2.2240 S.3       12 UNK        -0.2931 
      8 C8         31.3124   -3.5739   -1.5795 C.3       12 UNK         0.0378 
      9 C9         31.2834   -2.2003   -2.2307 C.ar      12 UNK        -0.0802 
     10 C10        31.7990   -2.0410   -3.5192 C.ar      12 UNK        -0.0944 
     11 C11        31.8530   -0.7778   -4.1128 C.ar      12 UNK        -0.0787 
     12 C12        31.3827    0.3307   -3.4044 C.ar      12 UNK        -0.0862 
     13 C13        30.8214    0.1825   -2.1318 C.ar      12 UNK        -0.0733 
     14 C14        30.7802   -1.0888   -1.5469 C.ar      12 UNK        -0.0832 
     15 C15        30.2705    1.3906   -1.3767 C.3       12 UNK         0.0240 
     16 S16        29.2368    2.4960   -2.4039 S.3       12 UNK        -0.2522 
     17 C17        27.9600    1.3499   -3.0184 C.3       12 UNK        -0.0967 
     18 CA         28.0846    1.0983   -4.5469 C.3       5 UNK         0.0660 
     19 N          27.7894   -0.2924   -4.8924 N.am      5 UNK        -0.4015 
     20 C          27.9018   -0.8319   -6.1140 C.2       4 UNK         0.4946 
     21 O          28.3741   -0.2466   -7.0886 O.2       4 UNK        -0.5353 
     22 CA         27.3357   -2.2492   -6.2865 C.3       4 UNK         0.0277 
     23 CB         28.3673   -3.3091   -5.8666 C.3       4 UNK        -0.1981 
     24 N          26.0881   -2.4218   -5.5346 N.am      4 UNK        -0.4209 
     25 C          24.9313   -1.8217   -5.8585 C.2       3 UNK         0.4942 
     26 O          24.7789   -1.1349   -6.8668 O.2       3 UNK        -0.5208 
     27 CA         23.7588   -1.9660   -4.8747 C.3       3 UNK         0.0250 
     28 CB         22.9375   -3.2280   -5.1810 C.3       3 UNK        -0.1990 
     29 N          24.1977   -1.9695   -3.4765 N.am      3 UNK        -0.4232 
     30 C          24.6727   -0.8821   -2.8476 C.2       2 UNK         0.4993 
     31 O          24.7489    0.2271   -3.3731 O.2       2 UNK        -0.5286 
     32 CA         25.2045   -1.0561   -1.4142 C.3       2 UNK         0.0209 
     33 CB         24.0826   -0.8151   -0.3923 C.3       2 UNK        -0.1931 
     34 N          25.8173   -2.3639   -1.1703 N.am      2 UNK        -0.4546 
     35 C          26.8619   -2.8563   -1.8504 C.2       1 UNK         0.5154 
     36 O          27.4542   -2.2300   -2.7315 O.2       1 UNK        -0.5181 
     37 C          27.2282    2.0828   -5.3725 C.2       5 UNK         0.5014 
     38 O          27.7810    2.9469   -6.0576 O.2       5 UNK        -0.5248 
     39 N          25.8990    1.8988   -5.3225 N.am      6 UNK        -0.4434 
     40 CA         24.8973    2.7015   -6.0295 C.3       6 UNK         0.0363 
     41 CB         23.4886    2.2581   -5.6060 C.3       6 UNK        -0.1936 
     42 C          25.0282    2.6648   -7.5602 C.2       6 UNK         0.5081 
     43 O          24.7781    3.6836   -8.2047 O.2       6 UNK        -0.5248 
     44 N          25.4602    1.5276   -8.1226 N.am      7 UNK        -0.4718 
     45 CA         25.7367    1.3245   -9.5511 C.3       7 UNK         0.0273 
     46 CB         25.7293   -0.1871   -9.8466 C.3       7 UNK        -0.1935 
     47 C          27.0364    2.0092  -10.0342 C.2       7 UNK         0.5018 
     48 O          27.7864    1.4170  -10.8110 O.2       7 UNK        -0.5186 
     49 N          27.2743    3.2454   -9.5719 N.am      8 UNK        -0.4240 
     50 CA         28.4305    4.1065   -9.8400 C.3       8 UNK         0.0235 
     51 CB         28.4007    4.6074  -11.3002 C.3       8 UNK        -0.2000 
     52 C          29.7722    3.4532   -9.4527 C.2       8 UNK         0.4941 
     53 O          30.7380    3.5540  -10.2121 O.2       8 UNK        -0.5273 
     54 N          29.8002    2.8046   -8.2765 N.am      9 UNK        -0.4262 
     55 CA         30.9286    2.0629   -7.7025 C.3       9 UNK         0.0264 
     56 CB         32.0661    3.0271   -7.2996 C.3       9 UNK        -0.1955 
     57 C          31.4030    0.9163   -8.6185 C.2       9 UNK         0.5031 
     58 O          32.5366    0.9301   -9.1045 O.2       9 UNK        -0.5390 
     59 N          30.5180   -0.0634   -8.8367 N.am      10 UNK        -0.4204 
     60 CA         30.7429   -1.2479   -9.6665 C.3       10 UNK         0.0237 
     61 CB         29.3785   -1.8112  -10.1067 C.3       10 UNK        -0.1985 
     62 C          31.6024   -2.2985   -8.9379 C.2       10 UNK         0.4970 
     63 O          31.0999   -3.3633   -8.5744 O.2       10 UNK        -0.4914 
     64 N          32.8808   -1.9762   -8.7280 N.am      11 UNK        -0.4285 
     65 CA         33.8856   -2.8356   -8.0911 C.3       11 UNK         0.1007 
     66 C          35.3153   -2.5248   -8.6116 C.2       11 UNK         0.5703 
     67 N          36.2998   -3.3360   -8.2477 N.am      11 UNK        -0.7361 
     68 O          35.5446   -1.5652   -9.3470 O.2       11 UNK        -0.4986 
     69 C69        33.7657   -2.8438   -6.5392 C.3       12 UNK        -0.0947 
     70 S70        34.0724   -1.2196   -5.7588 S.3       12 UNK        -0.2240 
     71 C71        32.3776   -0.5994   -5.5290 C.3       12 UNK         0.0194 
     72 H72        26.7838   -6.7228   -4.7237 H         1 UNK         0.0906 
     73 H73        25.0815   -7.0691   -4.4161 H         1 UNK         0.0906 
     74 H74        25.5350   -5.6816   -5.4100 H         1 UNK         0.0906 
     75 H75        27.8499   -5.5837   -3.0959 H         1 UNK         0.3140 
     76 H76        26.5678   -4.6679   -0.7604 H         1 UNK         0.1085 
     77 H77        28.7223   -5.3485   -0.3389 H         1 UNK         0.0836 
     78 H78        28.9163   -3.6272   -0.3028 H         1 UNK         0.0836 
     79 H79        32.2761   -4.0422   -1.7853 H         1 UNK         0.0731 
     80 H80        31.2478   -3.4968   -0.4932 H         1 UNK         0.0731 
     81 H81        32.1678   -2.9049   -4.0531 H         1 UNK         0.1312 
     82 H82        31.4271    1.3127   -3.8547 H         1 UNK         0.1406 
     83 H83        30.3673   -1.2132   -0.5552 H         1 UNK         0.1631 
     84 H84        31.1075    1.9646   -0.9774 H         1 UNK         0.0717 
     85 H85        29.6791    1.0689   -0.5180 H         1 UNK         0.0717 
     86 H86        28.0577    0.4127   -2.4690 H         1 UNK         0.0934 
     87 H87        26.9777    1.7370   -2.7405 H         1 UNK         0.0934 
     88 H88        29.1218    1.2544   -4.8461 H         1 UNK         0.0739 
     89 H89        27.4755   -0.8933   -4.1354 H         1 UNK         0.3093 
     90 H90        27.1146   -2.3926   -7.3462 H         1 UNK         0.0818 
     91 H91        27.9868   -4.3186   -6.0205 H         1 UNK         0.0819 
     92 H92        29.2792   -3.2142   -6.4578 H         1 UNK         0.0819 
     93 H93        28.6550   -3.2135   -4.8192 H         1 UNK         0.0819 
     94 H94        26.1509   -2.9104   -4.6529 H         1 UNK         0.3041 
     95 H95        23.1035   -1.1039   -5.0158 H         1 UNK         0.0784 
     96 H96        22.5343   -3.1898   -6.1939 H         1 UNK         0.0793 
     97 H97        23.5365   -4.1349   -5.1069 H         1 UNK         0.0793 
     98 H98        22.0923   -3.3273   -4.4998 H         1 UNK         0.0793 
     99 H99        24.2097   -2.8660   -3.0003 H         1 UNK         0.3024 
    100 H100       25.9747   -0.2976   -1.2604 H         1 UNK         0.1171 
    101 H101       24.4630   -0.8402    0.6291 H         1 UNK         0.0786 
    102 H102       23.6242    0.1639   -0.5407 H         1 UNK         0.0786 
    103 H103       23.2915   -1.5614   -0.4760 H         1 UNK         0.0786 
    104 H104       25.3616   -2.9516   -0.4866 H         1 UNK         0.2977 
    105 H105       25.5308    1.1812   -4.6984 H         1 UNK         0.3127 
    106 H106       25.0362    3.7382   -5.7165 H         1 UNK         0.0770 
    107 H107       23.3010    1.2164   -5.8683 H         1 UNK         0.0814 
    108 H108       22.7239    2.8618   -6.0965 H         1 UNK         0.0814 
    109 H109       23.3445    2.3645   -4.5307 H         1 UNK         0.0814 
    110 H110       25.6059    0.7227   -7.5230 H         1 UNK         0.2983 
    111 H111       24.9216    1.7754  -10.1210 H         1 UNK         0.0947 
    112 H112       26.5191   -0.7031   -9.2996 H         1 UNK         0.0806 
    113 H113       25.8798   -0.3862  -10.9084 H         1 UNK         0.0806 
    114 H114       24.7781   -0.6407   -9.5682 H         1 UNK         0.0806 
    115 H115       26.5635    3.6358   -8.9598 H         1 UNK         0.3000 
    116 H116       28.3204    4.9763   -9.1906 H         1 UNK         0.0850 
    117 H117       29.1882    5.3406  -11.4790 H         1 UNK         0.0810 
    118 H118       27.4519    5.0895  -11.5353 H         1 UNK         0.0810 
    119 H119       28.5480    3.7922  -12.0095 H         1 UNK         0.0810 
    120 H120       28.9510    2.7942   -7.7174 H         1 UNK         0.3040 
    121 H121       30.5511    1.5997   -6.7905 H         1 UNK         0.0766 
    122 H122       32.8912    2.4915   -6.8297 H         1 UNK         0.0812 
    123 H123       31.7165    3.7741   -6.5872 H         1 UNK         0.0812 
    124 H124       32.4785    3.5528   -8.1611 H         1 UNK         0.0812 
    125 H125       29.6331   -0.0354   -8.3270 H         1 UNK         0.3205 
    126 H126       31.2831   -0.9473  -10.5668 H         1 UNK         0.0754 
    127 H127       29.5028   -2.6922  -10.7377 H         1 UNK         0.0769 
    128 H128       28.8159   -1.0781  -10.6843 H         1 UNK         0.0769 
    129 H129       28.7673   -2.1034   -9.2522 H         1 UNK         0.0769 
    130 H130       33.2183   -1.0686   -9.0348 H         1 UNK         0.2981 
    131 H131       33.6874   -3.8518   -8.4375 H         1 UNK         0.0541 
    132 H132       37.2337   -3.1493   -8.5778 H         1 UNK         0.3459 
    133 H133       36.1298   -4.1279   -7.6478 H         1 UNK         0.3459 
    134 H134       32.7783   -3.2062   -6.2520 H         1 UNK         0.0612 
    135 H135       34.4677   -3.5591   -6.1087 H         1 UNK         0.0612 
    136 H136       32.3922    0.4576   -5.7855 H         1 UNK         0.0624 
    137 H137       31.6902   -1.0772   -6.2268 H         1 UNK         0.0624 
@<TRIPOS>BOND
     1    1    2 1    
     2    1   72 1    
     3    1   73 1    
     4    1   74 1    
     5    2    3 2    
     6    2    4 am   BACKBONE|DICT|INTERRES
     7    4    5 1    
     8    4   75 1    
     9    5    6 1    
    10    5   35 1    
    11    5   76 1    
    12    6    7 1    
    13    6   77 1    
    14    6   78 1    
    15    7    8 1    
    16    8    9 1    
    17    8   79 1    
    18    8   80 1    
    19    9   10 ar   
    20    9   14 ar   
    21   10   11 ar   
    22   10   81 1    
    23   11   12 ar   
    24   11   71 1    
    25   12   13 ar   
    26   12   82 1    
    27   13   14 ar   
    28   13   15 1    
    29   14   83 1    
    30   15   16 1    
    31   15   84 1    
    32   15   85 1    
    33   16   17 1    
    34   17   18 1    
    35   17   86 1    
    36   17   87 1    
    37   18   19 1    
    38   18   37 1    
    39   18   88 1    
    40   19   20 am   BACKBONE|DICT|INTERRES
    41   19   89 1    
    42   20   21 2    
    43   20   22 1    
    44   22   23 1    
    45   22   24 1    
    46   22   90 1    
    47   23   91 1    
    48   23   92 1    
    49   23   93 1    
    50   24   25 am   BACKBONE|DICT|INTERRES
    51   24   94 1    
    52   25   26 2    
    53   25   27 1    
    54   27   28 1    
    55   27   29 1    
    56   27   95 1    
    57   28   96 1    
    58   28   97 1    
    59   28   98 1    
    60   29   30 am   BACKBONE|DICT|INTERRES
    61   29   99 1    
    62   30   31 2    
    63   30   32 1    
    64   32   33 1    
    65   32   34 1    
    66   32  100 1    
    67   33  101 1    
    68   33  102 1    
    69   33  103 1    
    70   34   35 am   BACKBONE|DICT|INTERRES
    71   34  104 1    
    72   35   36 2    
    73   37   38 2    
    74   37   39 am   BACKBONE|DICT|INTERRES
    75   39   40 1    
    76   39  105 1    
    77   40   41 1    
    78   40   42 1    
    79   40  106 1    
    80   41  107 1    
    81   41  108 1    
    82   41  109 1    
    83   42   43 2    
    84   42   44 am   BACKBONE|DICT|INTERRES
    85   44   45 1    
    86   44  110 1    
    87   45   46 1    
    88   45   47 1    
    89   45  111 1    
    90   46  112 1    
    91   46  113 1    
    92   46  114 1    
    93   47   48 2    
    94   47   49 am   BACKBONE|DICT|INTERRES
    95   49   50 1    
    96   49  115 1    
    97   50   51 1    
    98   50   52 1    
    99   50  116 1    
   100   51  117 1    
   101   51  118 1    
   102   51  119 1    
   103   52   53 2    
   104   52   54 am   BACKBONE|DICT|INTERRES
   105   54   55 1    
   106   54  120 1    
   107   55   56 1    
   108   55   57 1    
   109   55  121 1    
   110   56  122 1    
   111   56  123 1    
   112   56  124 1    
   113   57   58 2    
   114   57   59 am   BACKBONE|DICT|INTERRES
   115   59   60 1    
   116   59  125 1    
   117   60   61 1    
   118   60   62 1    
   119   60  126 1    
   120   61  127 1    
   121   61  128 1    
   122   61  129 1    
   123   62   63 2    
   124   62   64 am   BACKBONE|DICT|INTERRES
   125   64   65 1    
   126   64  130 1    
   127   65   66 1    
   128   65   69 1    
   129   65  131 1    
   130   66   67 am   BACKBONE|DICT|INTERRES
   131   66   68 2    
   132   67  132 1    
   133   67  133 1    
   134   69   70 1    
   135   69  134 1    
   136   69  135 1    
   137   70   71 1    
   138   71  136 1    
   139   71  137 1    
@<TRIPOS>SUBSTRUCTURE
     1 UNK         1 GROUP             0       ****    0 ROOT    
