@<TRIPOS>MOLECULE
3R137
137   139    1
SMALL
USER_CHARGES


@<TRIPOS>ATOM
      1 CA         27.1677   -3.0234    3.2963 C.3       0 UNK        -0.2020 
      2 C          26.8876   -1.8842    2.3279 C.2       0 UNK         0.4855 
      3 O          26.4099   -0.8291    2.7456 O.2       0 UNK        -0.5197 
      4 N          27.1800   -2.0890    1.0367 N.am      1 UNK        -0.4892 
      5 CA         26.9858   -1.0980   -0.0328 C.3       1 UNK         0.0835 
      6 C6         27.8062   -1.4491   -1.2998 C.3       12 UNK        -0.0855 
      7 S7         29.6003   -1.3362   -0.9794 S.3       12 UNK        -0.2931 
      8 C8         30.1453   -3.0637   -1.1574 C.3       12 UNK         0.0378 
      9 C9         30.5932   -3.3658   -2.5800 C.ar      12 UNK        -0.0802 
     10 C10        31.9105   -3.1007   -2.9652 C.ar      12 UNK        -0.0944 
     11 C11        32.3477   -3.3964   -4.2595 C.ar      12 UNK        -0.0787 
     12 C12        31.4538   -3.9549   -5.1783 C.ar      12 UNK        -0.0862 
     13 C13        30.1370   -4.2363   -4.8016 C.ar      12 UNK        -0.0733 
     14 C14        29.7115   -3.9373   -3.5019 C.ar      12 UNK        -0.0832 
     15 C15        29.1878   -4.9215   -5.7731 C.3       12 UNK         0.0240 
     16 S16        27.7602   -3.8776   -6.1890 S.3       12 UNK        -0.2522 
     17 C17        28.3237   -2.9822   -7.6786 C.3       12 UNK        -0.0967 
     18 CA         27.8161   -1.5158   -7.7589 C.3       5 UNK         0.0660 
     19 N          26.4155   -1.3909   -7.3253 N.am      5 UNK        -0.4015 
     20 C          25.6443   -0.2980   -7.3745 C.2       4 UNK         0.4946 
     21 O          26.0403    0.7882   -7.7937 O.2       4 UNK        -0.5353 
     22 CA         24.1958   -0.4095   -6.8682 C.3       4 UNK         0.0277 
     23 CB         23.2212   -0.3961   -8.0571 C.3       4 UNK        -0.1981 
     24 N          23.9115   -1.5774   -6.0251 N.am      4 UNK        -0.4209 
     25 C          24.4229   -1.7931   -4.8056 C.2       3 UNK         0.4942 
     26 O          25.2972   -1.0904   -4.2923 O.2       3 UNK        -0.5208 
     27 CA         23.8838   -3.0232   -4.0561 C.3       3 UNK         0.0250 
     28 CB         24.7291   -4.2691   -4.3602 C.3       3 UNK        -0.1990 
     29 N          23.8831   -2.7982   -2.6127 N.am      3 UNK        -0.4232 
     30 C          22.9672   -2.0820   -1.9473 C.2       2 UNK         0.4993 
     31 O          21.9574   -1.6048   -2.4668 O.2       2 UNK        -0.5286 
     32 CA         23.2191   -1.8654   -0.4443 C.3       2 UNK         0.0209 
     33 CB         22.4886   -2.9331    0.3868 C.3       2 UNK        -0.1931 
     34 N          24.6450   -1.8764   -0.1004 N.am      2 UNK        -0.4546 
     35 C          25.4998   -0.8840   -0.3919 C.2       1 UNK         0.5154 
     36 O          25.1555    0.1729   -0.9225 O.2       1 UNK        -0.5181 
     37 C          28.8063   -0.5208   -7.1099 C.2       5 UNK         0.5014 
     38 O          29.8786   -0.3075   -7.6747 O.2       5 UNK        -0.5248 
     39 N          28.4294    0.1156   -5.9919 N.am      6 UNK        -0.4434 
     40 CA         29.1555    1.2458   -5.4050 C.3       6 UNK         0.0363 
     41 CB         28.6465    1.4872   -3.9761 C.3       6 UNK        -0.1936 
     42 C          29.0831    2.5448   -6.2386 C.2       6 UNK         0.5081 
     43 O          29.8919    3.4434   -6.0008 O.2       6 UNK        -0.5248 
     44 N          28.1392    2.6394   -7.1860 N.am      7 UNK        -0.4718 
     45 CA         27.9806    3.7784   -8.0957 C.3       7 UNK         0.0273 
     46 CB         26.7447    4.5922   -7.6776 C.3       7 UNK        -0.1935 
     47 C          27.8659    3.3431   -9.5655 C.2       7 UNK         0.5018 
     48 O          28.3797    4.0415  -10.4397 O.2       7 UNK        -0.5186 
     49 N          27.1888    2.2162   -9.8234 N.am      8 UNK        -0.4240 
     50 CA         26.9060    1.6884  -11.1614 C.3       8 UNK         0.0235 
     51 CB         25.6343    0.8247  -11.0921 C.3       8 UNK        -0.2000 
     52 C          28.0644    0.8846  -11.7793 C.2       8 UNK         0.4941 
     53 O          27.9679    0.5173  -12.9516 O.2       8 UNK        -0.5273 
     54 N          29.1195    0.6085  -11.0051 N.am      9 UNK        -0.4262 
     55 CA         30.3218   -0.0993  -11.4380 C.3       9 UNK         0.0264 
     56 CB         30.2621   -1.5577  -10.9443 C.3       9 UNK        -0.1955 
     57 C          31.5590    0.6381  -10.9087 C.2       9 UNK         0.5031 
     58 O          31.4285    1.6168  -10.1679 O.2       9 UNK        -0.5390 
     59 N          32.7451    0.1477  -11.2952 N.am      10 UNK        -0.4204 
     60 CA         34.0600    0.7251  -10.9837 C.3       10 UNK         0.0237 
     61 CB         35.1483   -0.0957  -11.6961 C.3       10 UNK        -0.1985 
     62 C          34.3878    0.8607   -9.4835 C.2       10 UNK         0.4970 
     63 O          35.2530    1.6659   -9.1361 O.2       10 UNK        -0.4914 
     64 N          33.6990    0.0936   -8.6286 N.am      11 UNK        -0.4285 
     65 CA         33.7487    0.2283   -7.1663 C.3       11 UNK         0.1007 
     66 C          33.0190    1.4912   -6.6145 C.2       11 UNK         0.5703 
     67 N          32.2263    2.2049   -7.4044 N.am      11 UNK        -0.7361 
     68 O          33.1864    1.8401   -5.4488 O.2       11 UNK        -0.4986 
     69 C69        33.2650   -1.0739   -6.4713 C.3       12 UNK        -0.0947 
     70 S70        34.1367   -1.3794   -4.9006 S.3       12 UNK        -0.2240 
     71 C71        33.7979   -3.1461   -4.6456 C.3       12 UNK         0.0194 
     72 H72        27.5924   -3.8924    2.7940 H         1 UNK         0.0906 
     73 H73        27.8707   -2.6989    4.0631 H         1 UNK         0.0906 
     74 H74        26.2460   -3.3329    3.7883 H         1 UNK         0.0906 
     75 H75        27.5935   -2.9660    0.7550 H         1 UNK         0.3140 
     76 H76        27.3431   -0.1346    0.3396 H         1 UNK         0.1085 
     77 H77        27.5444   -2.4401   -1.6740 H         1 UNK         0.0836 
     78 H78        27.5714   -0.7587   -2.1114 H         1 UNK         0.0836 
     79 H79        30.9769   -3.2354   -0.4721 H         1 UNK         0.0731 
     80 H80        29.3565   -3.7489   -0.8443 H         1 UNK         0.0731 
     81 H81        32.6010   -2.6676   -2.2540 H         1 UNK         0.1312 
     82 H82        31.7913   -4.1936   -6.1776 H         1 UNK         0.1406 
     83 H83        28.6947   -4.1608   -3.2090 H         1 UNK         0.1631 
     84 H84        28.8203   -5.8383   -5.3099 H         1 UNK         0.0717 
     85 H85        29.7010   -5.2294   -6.6854 H         1 UNK         0.0717 
     86 H86        29.4121   -3.0334   -7.7570 H         1 UNK         0.0934 
     87 H87        27.9494   -3.5354   -8.5414 H         1 UNK         0.0934 
     88 H88        27.8146   -1.2427   -8.8164 H         1 UNK         0.0739 
     89 H89        26.0199   -2.2306   -6.9278 H         1 UNK         0.3093 
     90 H90        24.0070    0.4815   -6.2653 H         1 UNK         0.0818 
     91 H91        22.1841   -0.3726   -7.7219 H         1 UNK         0.0819 
     92 H92        23.3754    0.4868   -8.6793 H         1 UNK         0.0819 
     93 H93        23.3501   -1.2706   -8.6961 H         1 UNK         0.0819 
     94 H94        23.2162   -2.2211   -6.3760 H         1 UNK         0.3041 
     95 H95        22.8581   -3.2121   -4.3811 H         1 UNK         0.0784 
     96 H96        24.7648   -4.4706   -5.4316 H         1 UNK         0.0793 
     97 H97        25.7560   -4.1527   -4.0122 H         1 UNK         0.0793 
     98 H98        24.3136   -5.1555   -3.8805 H         1 UNK         0.0793 
     99 H99        24.6956   -3.1145   -2.1064 H         1 UNK         0.3024 
    100 H100       22.8087   -0.8868   -0.1834 H         1 UNK         0.1171 
    101 H101       21.4193   -2.9305    0.1705 H         1 UNK         0.0786 
    102 H102       22.6014   -2.7496    1.4555 H         1 UNK         0.0786 
    103 H103       22.8611   -3.9363    0.1759 H         1 UNK         0.0786 
    104 H104       25.0038   -2.6945    0.3706 H         1 UNK         0.2977 
    105 H105       27.5373   -0.1217   -5.5796 H         1 UNK         0.3127 
    106 H106       30.2109    0.9715   -5.3416 H         1 UNK         0.0770 
    107 H107       27.5672    1.6419   -3.9475 H         1 UNK         0.0814 
    108 H108       29.1166    2.3665   -3.5332 H         1 UNK         0.0814 
    109 H109       28.8895    0.6427   -3.3337 H         1 UNK         0.0814 
    110 H110       27.4860    1.8695   -7.3040 H         1 UNK         0.2983 
    111 H111       28.8543    4.4314   -8.0363 H         1 UNK         0.0947 
    112 H112       26.5920    5.4431   -8.3429 H         1 UNK         0.0806 
    113 H113       26.8558    4.9865   -6.6674 H         1 UNK         0.0806 
    114 H114       25.8369    3.9877   -7.7033 H         1 UNK         0.0806 
    115 H115       26.7615    1.7088   -9.0484 H         1 UNK         0.3000 
    116 H116       26.7067    2.5289  -11.8298 H         1 UNK         0.0850 
    117 H117       25.3374    0.4838  -12.0848 H         1 UNK         0.0810 
    118 H118       24.7951    1.3851  -10.6797 H         1 UNK         0.0810 
    119 H119       25.7824   -0.0623  -10.4754 H         1 UNK         0.0810 
    120 H120       29.1800    1.0249  -10.0846 H         1 UNK         0.3040 
    121 H121       30.3868   -0.0939  -12.5281 H         1 UNK         0.0766 
    122 H122       31.0824   -2.1496  -11.3510 H         1 UNK         0.0812 
    123 H123       29.3362   -2.0423  -11.2547 H         1 UNK         0.0812 
    124 H124       30.3234   -1.6226   -9.8588 H         1 UNK         0.0812 
    125 H125       32.7511   -0.6620  -11.8991 H         1 UNK         0.3205 
    126 H126       34.0707    1.7354  -11.3980 H         1 UNK         0.0754 
    127 H127       36.1386    0.3248  -11.5142 H         1 UNK         0.0769 
    128 H128       34.9982   -0.1043  -12.7759 H         1 UNK         0.0769 
    129 H129       35.1653   -1.1298  -11.3492 H         1 UNK         0.0769 
    130 H130       32.9848   -0.5162   -8.9954 H         1 UNK         0.2981 
    131 H131       34.8026    0.3656   -6.9159 H         1 UNK         0.0541 
    132 H132       32.0404    1.9222   -8.3621 H         1 UNK         0.3459 
    133 H133       31.7151    2.9784   -7.0019 H         1 UNK         0.3459 
    134 H134       33.4529   -1.9350   -7.1146 H         1 UNK         0.0612 
    135 H135       32.1874   -1.0616   -6.2949 H         1 UNK         0.0612 
    136 H136       34.4487   -3.5146   -3.8514 H         1 UNK         0.0624 
    137 H137       34.0678   -3.7050   -5.5429 H         1 UNK         0.0624 
@<TRIPOS>BOND
     1    1    2 1    
     2    1   72 1    
     3    1   73 1    
     4    1   74 1    
     5    2    3 2    
     6    2    4 am   BACKBONE|DICT|INTERRES
     7    4    5 1    
     8    4   75 1    
     9    5    6 1    
    10    5   35 1    
    11    5   76 1    
    12    6    7 1    
    13    6   77 1    
    14    6   78 1    
    15    7    8 1    
    16    8    9 1    
    17    8   79 1    
    18    8   80 1    
    19    9   10 ar   
    20    9   14 ar   
    21   10   11 ar   
    22   10   81 1    
    23   11   12 ar   
    24   11   71 1    
    25   12   13 ar   
    26   12   82 1    
    27   13   14 ar   
    28   13   15 1    
    29   14   83 1    
    30   15   16 1    
    31   15   84 1    
    32   15   85 1    
    33   16   17 1    
    34   17   18 1    
    35   17   86 1    
    36   17   87 1    
    37   18   19 1    
    38   18   37 1    
    39   18   88 1    
    40   19   20 am   BACKBONE|DICT|INTERRES
    41   19   89 1    
    42   20   21 2    
    43   20   22 1    
    44   22   23 1    
    45   22   24 1    
    46   22   90 1    
    47   23   91 1    
    48   23   92 1    
    49   23   93 1    
    50   24   25 am   BACKBONE|DICT|INTERRES
    51   24   94 1    
    52   25   26 2    
    53   25   27 1    
    54   27   28 1    
    55   27   29 1    
    56   27   95 1    
    57   28   96 1    
    58   28   97 1    
    59   28   98 1    
    60   29   30 am   BACKBONE|DICT|INTERRES
    61   29   99 1    
    62   30   31 2    
    63   30   32 1    
    64   32   33 1    
    65   32   34 1    
    66   32  100 1    
    67   33  101 1    
    68   33  102 1    
    69   33  103 1    
    70   34   35 am   BACKBONE|DICT|INTERRES
    71   34  104 1    
    72   35   36 2    
    73   37   38 2    
    74   37   39 am   BACKBONE|DICT|INTERRES
    75   39   40 1    
    76   39  105 1    
    77   40   41 1    
    78   40   42 1    
    79   40  106 1    
    80   41  107 1    
    81   41  108 1    
    82   41  109 1    
    83   42   43 2    
    84   42   44 am   BACKBONE|DICT|INTERRES
    85   44   45 1    
    86   44  110 1    
    87   45   46 1    
    88   45   47 1    
    89   45  111 1    
    90   46  112 1    
    91   46  113 1    
    92   46  114 1    
    93   47   48 2    
    94   47   49 am   BACKBONE|DICT|INTERRES
    95   49   50 1    
    96   49  115 1    
    97   50   51 1    
    98   50   52 1    
    99   50  116 1    
   100   51  117 1    
   101   51  118 1    
   102   51  119 1    
   103   52   53 2    
   104   52   54 am   BACKBONE|DICT|INTERRES
   105   54   55 1    
   106   54  120 1    
   107   55   56 1    
   108   55   57 1    
   109   55  121 1    
   110   56  122 1    
   111   56  123 1    
   112   56  124 1    
   113   57   58 2    
   114   57   59 am   BACKBONE|DICT|INTERRES
   115   59   60 1    
   116   59  125 1    
   117   60   61 1    
   118   60   62 1    
   119   60  126 1    
   120   61  127 1    
   121   61  128 1    
   122   61  129 1    
   123   62   63 2    
   124   62   64 am   BACKBONE|DICT|INTERRES
   125   64   65 1    
   126   64  130 1    
   127   65   66 1    
   128   65   69 1    
   129   65  131 1    
   130   66   67 am   BACKBONE|DICT|INTERRES
   131   66   68 2    
   132   67  132 1    
   133   67  133 1    
   134   69   70 1    
   135   69  134 1    
   136   69  135 1    
   137   70   71 1    
   138   71  136 1    
   139   71  137 1    
@<TRIPOS>SUBSTRUCTURE
     1 UNK         1 GROUP             0       ****    0 ROOT    
