@<TRIPOS>MOLECULE
3R137
137   139    1
SMALL
USER_CHARGES


@<TRIPOS>ATOM
      1 CA         30.5286   -4.5999   -5.2506 C.3       0 UNK        -0.2020 
      2 C          29.0884   -4.5804   -4.7645 C.2       0 UNK         0.4855 
      3 O          28.1748   -4.8861   -5.5307 O.2       0 UNK        -0.5197 
      4 N          28.8792   -4.2480   -3.4854 N.am      1 UNK        -0.4892 
      5 CA         27.5681   -4.2310   -2.8260 C.3       1 UNK         0.0835 
      6 C6         27.6764   -4.1026   -1.2838 C.3       12 UNK        -0.0855 
      7 S7         28.9500   -5.1969   -0.5596 S.3       12 UNK        -0.2931 
      8 C8         30.0845   -4.0092    0.2362 C.3       12 UNK         0.0378 
      9 C9         30.6277   -2.9517   -0.7204 C.ar      12 UNK        -0.0802 
     10 C10        31.6162   -3.2774   -1.6553 C.ar      12 UNK        -0.0944 
     11 C11        32.1528   -2.2978   -2.4989 C.ar      12 UNK        -0.0787 
     12 C12        31.6892   -0.9809   -2.3846 C.ar      12 UNK        -0.0862 
     13 C13        30.6876   -0.6370   -1.4706 C.ar      12 UNK        -0.0733 
     14 C14        30.1678   -1.6329   -0.6355 C.ar      12 UNK        -0.0832 
     15 C15        30.2527    0.8298   -1.3963 C.3       12 UNK         0.0240 
     16 S16        28.7603    1.2069   -0.3999 S.3       12 UNK        -0.2522 
     17 C17        27.3723    0.7220   -1.4844 C.3       12 UNK        -0.0967 
     18 CA         27.3437    1.5073   -2.8291 C.3       5 UNK         0.0660 
     19 N          27.7507    0.6513   -3.9427 N.am      5 UNK        -0.4015 
     20 C          28.2746    1.0844   -5.0932 C.2       4 UNK         0.4946 
     21 O          28.3458    2.2704   -5.4056 O.2       4 UNK        -0.5353 
     22 CA         28.8086    0.0135   -6.0471 C.3       4 UNK         0.0277 
     23 CB         30.0147   -0.6829   -5.4152 C.3       4 UNK        -0.1981 
     24 N          27.7832   -0.9842   -6.3343 N.am      4 UNK        -0.4209 
     25 C          27.2178   -1.1837   -7.5302 C.2       3 UNK         0.4942 
     26 O          27.5680   -0.5883   -8.5484 O.2       3 UNK        -0.5208 
     27 CA         26.0765   -2.2163   -7.6291 C.3       3 UNK         0.0250 
     28 CB         26.5404   -3.4689   -8.3870 C.3       3 UNK        -0.1990 
     29 N          25.5085   -2.6059   -6.3365 N.am      3 UNK        -0.4232 
     30 C          24.8522   -1.7743   -5.5146 C.2       2 UNK         0.4993 
     31 O          24.6336   -0.5912   -5.7789 O.2       2 UNK        -0.5286 
     32 CA         24.4599   -2.3264   -4.1317 C.3       2 UNK         0.0209 
     33 CB         23.0453   -2.9238   -4.1739 C.3       2 UNK        -0.1931 
     34 N          25.4034   -3.3203   -3.5947 N.am      2 UNK        -0.4546 
     35 C          26.7086   -3.0882   -3.3936 C.2       1 UNK         0.5154 
     36 O          27.2458   -2.0070   -3.6441 O.2       1 UNK        -0.5181 
     37 C          26.0178    2.2599   -3.0804 C.2       5 UNK         0.5014 
     38 O          25.7265    3.1926   -2.3291 O.2       5 UNK        -0.5248 
     39 N          25.2591    1.8911   -4.1243 N.am      6 UNK        -0.4434 
     40 CA         24.1097    2.6536   -4.6135 C.3       6 UNK         0.0363 
     41 CB         22.8030    1.8732   -4.3838 C.3       6 UNK        -0.1936 
     42 C          24.2954    3.0313   -6.0904 C.2       6 UNK         0.5081 
     43 O          24.1930    4.2136   -6.4188 O.2       6 UNK        -0.5248 
     44 N          24.5512    2.0423   -6.9612 N.am      7 UNK        -0.4718 
     45 CA         24.5804    2.2471   -8.4178 C.3       7 UNK         0.0273 
     46 CB         24.2721    0.9244   -9.1348 C.3       7 UNK        -0.1935 
     47 C          25.8868    2.8562   -8.9624 C.2       7 UNK         0.5018 
     48 O          25.8594    3.4062  -10.0641 O.2       7 UNK        -0.5186 
     49 N          26.9920    2.7483   -8.2077 N.am      8 UNK        -0.4240 
     50 CA         28.3335    3.2667   -8.5243 C.3       8 UNK         0.0235 
     51 CB         28.3376    4.8102   -8.4765 C.3       8 UNK        -0.2000 
     52 C          28.9527    2.7042   -9.8220 C.2       8 UNK         0.4941 
     53 O          29.6740    3.4268  -10.5133 O.2       8 UNK        -0.5273 
     54 N          28.6749    1.4305  -10.1281 N.am      9 UNK        -0.4262 
     55 CA         29.1813    0.7239  -11.3053 C.3       9 UNK         0.0264 
     56 CB         28.0143   -0.0006  -11.9985 C.3       9 UNK        -0.1955 
     57 C          30.2913   -0.2731  -10.9379 C.2       9 UNK         0.5031 
     58 O          31.3104   -0.3185  -11.6294 O.2       9 UNK        -0.5390 
     59 N          30.0727   -1.0700   -9.8834 N.am      10 UNK        -0.4204 
     60 CA         30.9889   -2.1249   -9.4391 C.3       10 UNK         0.0237 
     61 CB         30.1850   -3.2043   -8.6946 C.3       10 UNK        -0.1985 
     62 C          32.1346   -1.5896   -8.5617 C.2       10 UNK         0.4970 
     63 O          32.0333   -0.4857   -8.0247 O.2       10 UNK        -0.4914 
     64 N          33.1860   -2.4139   -8.4360 N.am      11 UNK        -0.4285 
     65 CA         34.4025   -2.2621   -7.6084 C.3       11 UNK         0.1007 
     66 C          35.2095   -0.9304   -7.7272 C.2       11 UNK         0.5703 
     67 N          34.9744   -0.0974   -8.7330 N.am      11 UNK        -0.7361 
     68 O          36.1074   -0.6722   -6.9285 O.2       11 UNK        -0.4986 
     69 C69        34.2303   -2.7909   -6.1505 C.3       12 UNK        -0.0947 
     70 S70        33.1696   -1.7756   -5.0753 S.3       12 UNK        -0.2240 
     71 C71        33.2607   -2.6734   -3.4879 C.3       12 UNK         0.0194 
     72 H72        30.7995   -3.6398   -5.6839 H         1 UNK         0.0906 
     73 H73        31.2168   -4.8171   -4.4351 H         1 UNK         0.0906 
     74 H74        30.6620   -5.3676   -6.0123 H         1 UNK         0.0906 
     75 H75        29.6545   -3.9741   -2.8973 H         1 UNK         0.3140 
     76 H76        27.0792   -5.1802   -3.0564 H         1 UNK         0.1085 
     77 H77        26.7189   -4.3546   -0.8243 H         1 UNK         0.0836 
     78 H78        27.8733   -3.0712   -0.9898 H         1 UNK         0.0836 
     79 H79        30.9194   -4.5609    0.6707 H         1 UNK         0.0731 
     80 H80        29.5679   -3.5393    1.0748 H         1 UNK         0.0731 
     81 H81        31.9797   -4.2948   -1.7110 H         1 UNK         0.1312 
     82 H82        32.1152   -0.2094   -3.0108 H         1 UNK         0.1406 
     83 H83        29.4155   -1.3862    0.0998 H         1 UNK         0.1631 
     84 H84        30.1240    1.2202   -2.4058 H         1 UNK         0.0717 
     85 H85        31.0801    1.3940   -0.9640 H         1 UNK         0.0717 
     86 H86        27.4245   -0.3558   -1.6414 H         1 UNK         0.0934 
     87 H87        26.4569    0.8754   -0.9092 H         1 UNK         0.0934 
     88 H88        28.0801    2.3117   -2.7712 H         1 UNK         0.0739 
     89 H89        27.6819   -0.3537   -3.7786 H         1 UNK         0.3093 
     90 H90        29.1449    0.5081   -6.9607 H         1 UNK         0.0818 
     91 H91        29.7579   -1.2247   -4.5044 H         1 UNK         0.0819 
     92 H92        30.4507   -1.3966   -6.1082 H         1 UNK         0.0819 
     93 H93        30.7920    0.0404   -5.1668 H         1 UNK         0.0819 
     94 H94        27.4446   -1.5197   -5.5414 H         1 UNK         0.3041 
     95 H95        25.2722   -1.7627   -8.2077 H         1 UNK         0.0784 
     96 H96        26.9158   -3.2083   -9.3777 H         1 UNK         0.0793 
     97 H97        27.3408   -3.9878   -7.8603 H         1 UNK         0.0793 
     98 H98        25.7209   -4.1735   -8.5294 H         1 UNK         0.0793 
     99 H99        25.6898   -3.5504   -6.0258 H         1 UNK         0.3024 
    100 H100       24.4514   -1.4775   -3.4439 H         1 UNK         0.1171 
    101 H101       22.7099   -3.2215   -3.1802 H         1 UNK         0.0786 
    102 H102       22.3257   -2.1953   -4.5509 H         1 UNK         0.0786 
    103 H103       22.9942   -3.7988   -4.8231 H         1 UNK         0.0786 
    104 H104       25.0235   -4.2282   -3.3658 H         1 UNK         0.2977 
    105 H105       25.5415    1.0982   -4.6860 H         1 UNK         0.3127 
    106 H106       24.0216    3.5946   -4.0660 H         1 UNK         0.0770 
    107 H107       22.7776    0.9310   -4.9294 H         1 UNK         0.0814 
    108 H108       21.9422    2.4576   -4.7109 H         1 UNK         0.0814 
    109 H109       22.6593    1.6498   -3.3268 H         1 UNK         0.0814 
    110 H110       24.5823    1.0819   -6.6241 H         1 UNK         0.2983 
    111 H111       23.7776    2.9439   -8.6709 H         1 UNK         0.0947 
    112 H112       24.0329    1.1041  -10.1837 H         1 UNK         0.0806 
    113 H113       23.4213    0.4074   -8.6905 H         1 UNK         0.0806 
    114 H114       25.1281    0.2549   -9.1199 H         1 UNK         0.0806 
    115 H115       26.9048    2.2964   -7.3079 H         1 UNK         0.3000 
    116 H116       28.9971    2.9238   -7.7323 H         1 UNK         0.0850 
    117 H117       29.3505    5.2041   -8.5684 H         1 UNK         0.0810 
    118 H118       27.9352    5.1764   -7.5319 H         1 UNK         0.0810 
    119 H119       27.7457    5.2415   -9.2842 H         1 UNK         0.0810 
    120 H120       28.1038    0.8805   -9.4893 H         1 UNK         0.3040 
    121 H121       29.6002    1.4338  -12.0217 H         1 UNK         0.0766 
    122 H122       27.2500    0.7061  -12.3223 H         1 UNK         0.0812 
    123 H123       27.5367   -0.7283  -11.3410 H         1 UNK         0.0812 
    124 H124       28.3580   -0.5360  -12.8846 H         1 UNK         0.0812 
    125 H125       29.2178   -0.9427   -9.3484 H         1 UNK         0.3205 
    126 H126       31.4337   -2.5883  -10.3227 H         1 UNK         0.0754 
    127 H127       30.8265   -4.0216   -8.3633 H         1 UNK         0.0769 
    128 H128       29.4241   -3.6408   -9.3412 H         1 UNK         0.0769 
    129 H129       29.6860   -2.8055   -7.8126 H         1 UNK         0.0769 
    130 H130       33.1548   -3.2777   -8.9574 H         1 UNK         0.2981 
    131 H131       35.0867   -2.9723   -8.0739 H         1 UNK         0.0541 
    132 H132       34.2194   -0.2776   -9.3751 H         1 UNK         0.3459 
    133 H133       35.5146    0.7495   -8.8093 H         1 UNK         0.3459 
    134 H134       35.2044   -2.8918   -5.6690 H         1 UNK         0.0612 
    135 H135       33.8112   -3.7978   -6.1782 H         1 UNK         0.0612 
    136 H136       34.2283   -2.4732   -3.0267 H         1 UNK         0.0624 
    137 H137       33.2301   -3.7442   -3.6923 H         1 UNK         0.0624 
@<TRIPOS>BOND
     1    1    2 1    
     2    1   72 1    
     3    1   73 1    
     4    1   74 1    
     5    2    3 2    
     6    2    4 am   BACKBONE|DICT|INTERRES
     7    4    5 1    
     8    4   75 1    
     9    5    6 1    
    10    5   35 1    
    11    5   76 1    
    12    6    7 1    
    13    6   77 1    
    14    6   78 1    
    15    7    8 1    
    16    8    9 1    
    17    8   79 1    
    18    8   80 1    
    19    9   10 ar   
    20    9   14 ar   
    21   10   11 ar   
    22   10   81 1    
    23   11   12 ar   
    24   11   71 1    
    25   12   13 ar   
    26   12   82 1    
    27   13   14 ar   
    28   13   15 1    
    29   14   83 1    
    30   15   16 1    
    31   15   84 1    
    32   15   85 1    
    33   16   17 1    
    34   17   18 1    
    35   17   86 1    
    36   17   87 1    
    37   18   19 1    
    38   18   37 1    
    39   18   88 1    
    40   19   20 am   BACKBONE|DICT|INTERRES
    41   19   89 1    
    42   20   21 2    
    43   20   22 1    
    44   22   23 1    
    45   22   24 1    
    46   22   90 1    
    47   23   91 1    
    48   23   92 1    
    49   23   93 1    
    50   24   25 am   BACKBONE|DICT|INTERRES
    51   24   94 1    
    52   25   26 2    
    53   25   27 1    
    54   27   28 1    
    55   27   29 1    
    56   27   95 1    
    57   28   96 1    
    58   28   97 1    
    59   28   98 1    
    60   29   30 am   BACKBONE|DICT|INTERRES
    61   29   99 1    
    62   30   31 2    
    63   30   32 1    
    64   32   33 1    
    65   32   34 1    
    66   32  100 1    
    67   33  101 1    
    68   33  102 1    
    69   33  103 1    
    70   34   35 am   BACKBONE|DICT|INTERRES
    71   34  104 1    
    72   35   36 2    
    73   37   38 2    
    74   37   39 am   BACKBONE|DICT|INTERRES
    75   39   40 1    
    76   39  105 1    
    77   40   41 1    
    78   40   42 1    
    79   40  106 1    
    80   41  107 1    
    81   41  108 1    
    82   41  109 1    
    83   42   43 2    
    84   42   44 am   BACKBONE|DICT|INTERRES
    85   44   45 1    
    86   44  110 1    
    87   45   46 1    
    88   45   47 1    
    89   45  111 1    
    90   46  112 1    
    91   46  113 1    
    92   46  114 1    
    93   47   48 2    
    94   47   49 am   BACKBONE|DICT|INTERRES
    95   49   50 1    
    96   49  115 1    
    97   50   51 1    
    98   50   52 1    
    99   50  116 1    
   100   51  117 1    
   101   51  118 1    
   102   51  119 1    
   103   52   53 2    
   104   52   54 am   BACKBONE|DICT|INTERRES
   105   54   55 1    
   106   54  120 1    
   107   55   56 1    
   108   55   57 1    
   109   55  121 1    
   110   56  122 1    
   111   56  123 1    
   112   56  124 1    
   113   57   58 2    
   114   57   59 am   BACKBONE|DICT|INTERRES
   115   59   60 1    
   116   59  125 1    
   117   60   61 1    
   118   60   62 1    
   119   60  126 1    
   120   61  127 1    
   121   61  128 1    
   122   61  129 1    
   123   62   63 2    
   124   62   64 am   BACKBONE|DICT|INTERRES
   125   64   65 1    
   126   64  130 1    
   127   65   66 1    
   128   65   69 1    
   129   65  131 1    
   130   66   67 am   BACKBONE|DICT|INTERRES
   131   66   68 2    
   132   67  132 1    
   133   67  133 1    
   134   69   70 1    
   135   69  134 1    
   136   69  135 1    
   137   70   71 1    
   138   71  136 1    
   139   71  137 1    
@<TRIPOS>SUBSTRUCTURE
     1 UNK         1 GROUP             0       ****    0 ROOT    
