@<TRIPOS>MOLECULE
3R137
137   139    1
SMALL
USER_CHARGES


@<TRIPOS>ATOM
      1 CA         30.1079   -5.2500   -2.2016 C.3       0 UNK        -0.2020 
      2 C          29.1552   -4.5206   -1.2690 C.2       0 UNK         0.4855 
      3 O          28.5493   -5.1425   -0.3959 O.2       0 UNK        -0.5197 
      4 N          29.0211   -3.2009   -1.4489 N.am      1 UNK        -0.4892 
      5 CA         28.1459   -2.3303   -0.6515 C.3       1 UNK         0.0835 
      6 C6         28.4313   -0.8271   -0.8958 C.3       12 UNK        -0.0855 
      7 S7         30.1334   -0.3222   -0.4831 S.3       12 UNK        -0.2931 
      8 C8         30.7707    0.1858   -2.1113 C.3       12 UNK         0.0378 
      9 C9         31.1386   -1.0208   -2.9590 C.ar      12 UNK        -0.0802 
     10 C10        32.3550   -1.6721   -2.7386 C.ar      12 UNK        -0.0944 
     11 C11        32.7113   -2.7835   -3.5046 C.ar      12 UNK        -0.0787 
     12 C12        31.8394   -3.2481   -4.4912 C.ar      12 UNK        -0.0862 
     13 C13        30.6242   -2.6026   -4.7277 C.ar      12 UNK        -0.0733 
     14 C14        30.2784   -1.4841   -3.9600 C.ar      12 UNK        -0.0832 
     15 C15        29.7336   -3.0822   -5.8631 C.3       12 UNK         0.0240 
     16 S16        27.9978   -3.3104   -5.3670 S.3       12 UNK        -0.2522 
     17 C17        27.2294   -3.3728   -7.0264 C.3       12 UNK        -0.0967 
     18 CA         26.6040   -2.0538   -7.5675 C.3       5 UNK         0.0660 
     19 N          25.2018   -1.8803   -7.1744 N.am      5 UNK        -0.4015 
     20 C          24.3377   -1.1019   -7.8449 C.2       4 UNK         0.4946 
     21 O          24.6418   -0.4461   -8.8408 O.2       4 UNK        -0.5353 
     22 CA         22.8994   -1.0175   -7.3108 C.3       4 UNK         0.0277 
     23 CB         22.0943   -2.2637   -7.7134 C.3       4 UNK        -0.1981 
     24 N          22.8412   -0.8372   -5.8610 N.am      4 UNK        -0.4209 
     25 C          23.2883    0.2480   -5.2134 C.2       3 UNK         0.4942 
     26 O          23.7742    1.2319   -5.7699 O.2       3 UNK        -0.5208 
     27 CA         23.2285    0.2028   -3.6776 C.3       3 UNK         0.0250 
     28 CB         21.8464    0.6497   -3.1753 C.3       3 UNK        -0.1990 
     29 N          23.5603   -1.1119   -3.1138 N.am      3 UNK        -0.4232 
     30 C          24.7241   -1.7446   -3.3138 C.2       2 UNK         0.4993 
     31 O          25.6165   -1.3188   -4.0519 O.2       2 UNK        -0.5286 
     32 CA         24.9268   -3.0846   -2.5958 C.3       2 UNK         0.0209 
     33 CB         24.7120   -4.2607   -3.5621 C.3       2 UNK        -0.1931 
     34 N          26.2929   -3.1143   -2.0783 N.am      2 UNK        -0.4546 
     35 C          26.6447   -2.5898   -0.8964 C.2       1 UNK         0.5154 
     36 O          25.8312   -2.2629   -0.0300 O.2       1 UNK        -0.5181 
     37 C          27.4304   -0.7791   -7.2915 C.2       5 UNK         0.5014 
     38 O          28.2942   -0.4274   -8.1007 O.2       5 UNK        -0.5248 
     39 N          27.1292   -0.0970   -6.1751 N.am      6 UNK        -0.4434 
     40 CA         27.7102    1.1910   -5.8010 C.3       6 UNK         0.0363 
     41 CB         27.2599    1.5746   -4.3836 C.3       6 UNK        -0.1936 
     42 C          27.3654    2.3040   -6.8026 C.2       6 UNK         0.5081 
     43 O          28.2479    3.0782   -7.1711 O.2       6 UNK        -0.5248 
     44 N          26.1004    2.3457   -7.2463 N.am      7 UNK        -0.4718 
     45 CA         25.6237    3.2544   -8.2906 C.3       7 UNK         0.0273 
     46 CB         24.0880    3.2241   -8.3440 C.3       7 UNK        -0.1935 
     47 C          26.2192    2.9373   -9.6721 C.2       7 UNK         0.5018 
     48 O          26.5268    3.8682  -10.4177 O.2       7 UNK        -0.5186 
     49 N          26.3696    1.6421   -9.9884 N.am      8 UNK        -0.4240 
     50 CA         26.9452    1.1599  -11.2443 C.3       8 UNK         0.0235 
     51 CB         26.7138   -0.3525  -11.3910 C.3       8 UNK        -0.2000 
     52 C          28.4366    1.4952  -11.3991 C.2       8 UNK         0.4941 
     53 O          28.8282    1.9508  -12.4753 O.2       8 UNK        -0.5273 
     54 N          29.2392    1.2675  -10.3481 N.am      9 UNK        -0.4262 
     55 CA         30.6851    1.5129  -10.3800 C.3       9 UNK         0.0264 
     56 CB         31.4028    0.4339  -11.2186 C.3       9 UNK        -0.1955 
     57 C          31.3367    1.6083   -8.9944 C.2       9 UNK         0.5031 
     58 O          32.2078    2.4624   -8.8159 O.2       9 UNK        -0.5390 
     59 N          30.9567    0.7116   -8.0694 N.am      10 UNK        -0.4204 
     60 CA         31.6398    0.4128   -6.7988 C.3       10 UNK         0.0237 
     61 CB         31.6780    1.6529   -5.8739 C.3       10 UNK        -0.1985 
     62 C          33.0481   -0.1982   -7.0005 C.2       10 UNK         0.4970 
     63 O          33.4655   -0.4457   -8.1360 O.2       10 UNK        -0.4914 
     64 N          33.7653   -0.4309   -5.8917 N.am      11 UNK        -0.4285 
     65 CA         35.2019   -0.7705   -5.8967 C.3       11 UNK         0.1007 
     66 C          36.1369    0.4551   -6.1349 C.2       11 UNK         0.5703 
     67 N          35.6466    1.6905   -6.1254 N.am      11 UNK        -0.7361 
     68 O          37.3349    0.2796   -6.3460 O.2       11 UNK        -0.4986 
     69 C69        35.6227   -1.5570   -4.6233 C.3       12 UNK        -0.0947 
     70 S70        35.1461   -3.3151   -4.7063 S.3       12 UNK        -0.2240 
     71 C71        34.0378   -3.4873   -3.2741 C.3       12 UNK         0.0194 
     72 H72        29.8191   -5.0967   -3.2411 H         1 UNK         0.0906 
     73 H73        31.1266   -4.8888   -2.0642 H         1 UNK         0.0906 
     74 H74        30.0993   -6.3218   -2.0045 H         1 UNK         0.0906 
     75 H75        29.5799   -2.7359   -2.1530 H         1 UNK         0.3140 
     76 H76        28.3359   -2.5467    0.4023 H         1 UNK         0.1085 
     77 H77        27.7662   -0.2108   -0.2869 H         1 UNK         0.0836 
     78 H78        28.2087   -0.5662   -1.9307 H         1 UNK         0.0836 
     79 H79        30.0422    0.8185   -2.6212 H         1 UNK         0.0731 
     80 H80        31.6556    0.8065   -1.9625 H         1 UNK         0.0731 
     81 H81        33.0220   -1.3130   -1.9664 H         1 UNK         0.1312 
     82 H82        32.1241   -4.1033   -5.0892 H         1 UNK         0.1406 
     83 H83        29.3435   -0.9742   -4.1512 H         1 UNK         0.1631 
     84 H84        30.0982   -4.0269   -6.2697 H         1 UNK         0.0717 
     85 H85        29.7958   -2.3575   -6.6743 H         1 UNK         0.0717 
     86 H86        27.9829   -3.7205   -7.7354 H         1 UNK         0.0934 
     87 H87        26.4789   -4.1648   -7.0194 H         1 UNK         0.0934 
     88 H88        26.5935   -2.1649   -8.6538 H         1 UNK         0.0739 
     89 H89        24.9072   -2.3322   -6.3215 H         1 UNK         0.3093 
     90 H90        22.4292   -0.1463   -7.7726 H         1 UNK         0.0818 
     91 H91        21.0478   -2.1704   -7.4224 H         1 UNK         0.0819 
     92 H92        22.1153   -2.4075   -8.7947 H         1 UNK         0.0819 
     93 H93        22.4904   -3.1713   -7.2563 H         1 UNK         0.0819 
     94 H94        22.4566   -1.5950   -5.3164 H         1 UNK         0.3041 
     95 H95        23.9705    0.9120   -3.3048 H         1 UNK         0.0784 
     96 H96        21.5876    1.6331   -3.5707 H         1 UNK         0.0793 
     97 H97        21.0599   -0.0416   -3.4808 H         1 UNK         0.0793 
     98 H98        21.8243    0.7251   -2.0879 H         1 UNK         0.0793 
     99 H99        22.8743   -1.5267   -2.4991 H         1 UNK         0.3024 
    100 H100       24.2136   -3.1741   -1.7729 H         1 UNK         0.1171 
    101 H101       23.6851   -4.2814   -3.9289 H         1 UNK         0.0786 
    102 H102       24.8986   -5.2149   -3.0691 H         1 UNK         0.0786 
    103 H103       25.3665   -4.2021   -4.4312 H         1 UNK         0.0786 
    104 H104       27.0225   -3.2971   -2.7535 H         1 UNK         0.2977 
    105 H105       26.4582   -0.5011   -5.5234 H         1 UNK         0.3127 
    106 H106       28.7921    1.0640   -5.7938 H         1 UNK         0.0770 
    107 H107       26.1803    1.7173   -4.3288 H         1 UNK         0.0814 
    108 H108       27.7307    2.5046   -4.0627 H         1 UNK         0.0814 
    109 H109       27.5282    0.8066   -3.6609 H         1 UNK         0.0814 
    110 H110       25.4138    1.7150   -6.8424 H         1 UNK         0.2983 
    111 H111       25.9351    4.2665   -8.0226 H         1 UNK         0.0947 
    112 H112       23.7092    3.8992   -9.1124 H         1 UNK         0.0806 
    113 H113       23.6531    3.5369   -7.3946 H         1 UNK         0.0806 
    114 H114       23.7118    2.2255   -8.5700 H         1 UNK         0.0806 
    115 H115       26.0074    0.9396   -9.3508 H         1 UNK         0.3000 
    116 H116       26.4121    1.6570  -12.0578 H         1 UNK         0.0850 
    117 H117       27.1079   -0.7163  -12.3409 H         1 UNK         0.0810 
    118 H118       25.6517   -0.5963  -11.3681 H         1 UNK         0.0810 
    119 H119       27.2062   -0.9156  -10.5988 H         1 UNK         0.0810 
    120 H120       28.8386    0.8985   -9.4900 H         1 UNK         0.3040 
    121 H121       30.8485    2.4806  -10.8603 H         1 UNK         0.0766 
    122 H122       32.4841    0.5791  -11.2007 H         1 UNK         0.0812 
    123 H123       31.0955    0.4615  -12.2639 H         1 UNK         0.0812 
    124 H124       31.2039   -0.5682  -10.8368 H         1 UNK         0.0812 
    125 H125       30.1961    0.0793   -8.2997 H         1 UNK         0.3205 
    126 H126       31.0286   -0.3477   -6.3203 H         1 UNK         0.0754 
    127 H127       31.8780    1.3715   -4.8399 H         1 UNK         0.0769 
    128 H128       30.7336    2.1951   -5.8815 H         1 UNK         0.0769 
    129 H129       32.4521    2.3592   -6.1751 H         1 UNK         0.0769 
    130 H130       33.3524   -0.2609   -4.9859 H         1 UNK         0.2981 
    131 H131       35.3869   -1.4228   -6.7531 H         1 UNK         0.0541 
    132 H132       34.6663    1.8546   -5.9688 H         1 UNK         0.3459 
    133 H133       36.2687    2.4670   -6.2888 H         1 UNK         0.3459 
    134 H134       35.2155   -1.0890   -3.7257 H         1 UNK         0.0612 
    135 H135       36.7067   -1.5508   -4.4940 H         1 UNK         0.0612 
    136 H136       33.8514   -4.5478   -3.0992 H         1 UNK         0.0624 
    137 H137       34.5375   -3.1107   -2.3802 H         1 UNK         0.0624 
@<TRIPOS>BOND
     1    1    2 1    
     2    1   72 1    
     3    1   73 1    
     4    1   74 1    
     5    2    3 2    
     6    2    4 am   BACKBONE|DICT|INTERRES
     7    4    5 1    
     8    4   75 1    
     9    5    6 1    
    10    5   35 1    
    11    5   76 1    
    12    6    7 1    
    13    6   77 1    
    14    6   78 1    
    15    7    8 1    
    16    8    9 1    
    17    8   79 1    
    18    8   80 1    
    19    9   10 ar   
    20    9   14 ar   
    21   10   11 ar   
    22   10   81 1    
    23   11   12 ar   
    24   11   71 1    
    25   12   13 ar   
    26   12   82 1    
    27   13   14 ar   
    28   13   15 1    
    29   14   83 1    
    30   15   16 1    
    31   15   84 1    
    32   15   85 1    
    33   16   17 1    
    34   17   18 1    
    35   17   86 1    
    36   17   87 1    
    37   18   19 1    
    38   18   37 1    
    39   18   88 1    
    40   19   20 am   BACKBONE|DICT|INTERRES
    41   19   89 1    
    42   20   21 2    
    43   20   22 1    
    44   22   23 1    
    45   22   24 1    
    46   22   90 1    
    47   23   91 1    
    48   23   92 1    
    49   23   93 1    
    50   24   25 am   BACKBONE|DICT|INTERRES
    51   24   94 1    
    52   25   26 2    
    53   25   27 1    
    54   27   28 1    
    55   27   29 1    
    56   27   95 1    
    57   28   96 1    
    58   28   97 1    
    59   28   98 1    
    60   29   30 am   BACKBONE|DICT|INTERRES
    61   29   99 1    
    62   30   31 2    
    63   30   32 1    
    64   32   33 1    
    65   32   34 1    
    66   32  100 1    
    67   33  101 1    
    68   33  102 1    
    69   33  103 1    
    70   34   35 am   BACKBONE|DICT|INTERRES
    71   34  104 1    
    72   35   36 2    
    73   37   38 2    
    74   37   39 am   BACKBONE|DICT|INTERRES
    75   39   40 1    
    76   39  105 1    
    77   40   41 1    
    78   40   42 1    
    79   40  106 1    
    80   41  107 1    
    81   41  108 1    
    82   41  109 1    
    83   42   43 2    
    84   42   44 am   BACKBONE|DICT|INTERRES
    85   44   45 1    
    86   44  110 1    
    87   45   46 1    
    88   45   47 1    
    89   45  111 1    
    90   46  112 1    
    91   46  113 1    
    92   46  114 1    
    93   47   48 2    
    94   47   49 am   BACKBONE|DICT|INTERRES
    95   49   50 1    
    96   49  115 1    
    97   50   51 1    
    98   50   52 1    
    99   50  116 1    
   100   51  117 1    
   101   51  118 1    
   102   51  119 1    
   103   52   53 2    
   104   52   54 am   BACKBONE|DICT|INTERRES
   105   54   55 1    
   106   54  120 1    
   107   55   56 1    
   108   55   57 1    
   109   55  121 1    
   110   56  122 1    
   111   56  123 1    
   112   56  124 1    
   113   57   58 2    
   114   57   59 am   BACKBONE|DICT|INTERRES
   115   59   60 1    
   116   59  125 1    
   117   60   61 1    
   118   60   62 1    
   119   60  126 1    
   120   61  127 1    
   121   61  128 1    
   122   61  129 1    
   123   62   63 2    
   124   62   64 am   BACKBONE|DICT|INTERRES
   125   64   65 1    
   126   64  130 1    
   127   65   66 1    
   128   65   69 1    
   129   65  131 1    
   130   66   67 am   BACKBONE|DICT|INTERRES
   131   66   68 2    
   132   67  132 1    
   133   67  133 1    
   134   69   70 1    
   135   69  134 1    
   136   69  135 1    
   137   70   71 1    
   138   71  136 1    
   139   71  137 1    
@<TRIPOS>SUBSTRUCTURE
     1 UNK         1 GROUP             0       ****    0 ROOT    
