@<TRIPOS>MOLECULE
3R137
137   139    1
SMALL
USER_CHARGES


@<TRIPOS>ATOM
      1 CA         29.4651    1.3315   -5.1161 C.3       0 UNK        -0.2020 
      2 C          28.7628    0.1115   -4.5461 C.2       0 UNK         0.4855 
      3 O          27.6397   -0.1904   -4.9537 O.2       0 UNK        -0.5197 
      4 N          29.4018   -0.5771   -3.5889 N.am      1 UNK        -0.4892 
      5 CA         28.8404   -1.7377   -2.8847 C.3       1 UNK         0.0835 
      6 C6         29.8944   -2.4524   -2.0015 C.3       12 UNK        -0.0855 
      7 S7         29.3621   -4.1365   -1.5263 S.3       12 UNK        -0.2931 
      8 C8         30.6739   -5.2009   -2.2117 C.3       12 UNK         0.0378 
      9 C9         30.8072   -5.0791   -3.7239 C.ar      12 UNK        -0.0802 
     10 C10        31.9951   -4.5996   -4.2815 C.ar      12 UNK        -0.0944 
     11 C11        32.1304   -4.4663   -5.6663 C.ar      12 UNK        -0.0787 
     12 C12        31.0747   -4.8471   -6.4982 C.ar      12 UNK        -0.0862 
     13 C13        29.8835   -5.3393   -5.9543 C.ar      12 UNK        -0.0733 
     14 C14        29.7559   -5.4548   -4.5659 C.ar      12 UNK        -0.0832 
     15 C15        28.7382   -5.7482   -6.8698 C.3       12 UNK         0.0240 
     16 S16        28.0910   -4.3379   -7.8218 S.3       12 UNK        -0.2522 
     17 C17        27.3169   -3.3150   -6.5205 C.3       12 UNK        -0.0967 
     18 CA         25.7748   -3.2014   -6.6764 C.3       5 UNK         0.0660 
     19 N          25.1488   -2.8579   -5.4005 N.am      5 UNK        -0.4015 
     20 C          23.9580   -3.2977   -4.9692 C.2       4 UNK         0.4946 
     21 O          23.3066   -4.1827   -5.5268 O.2       4 UNK        -0.5353 
     22 CA         23.3857   -2.6315   -3.7048 C.3       4 UNK         0.0277 
     23 CB         23.5767   -3.5384   -2.4778 C.3       4 UNK        -0.1981 
     24 N          24.0048   -1.3266   -3.4531 N.am      4 UNK        -0.4209 
     25 C          23.6021   -0.1763   -4.0179 C.2       3 UNK         0.4942 
     26 O          22.5839   -0.0843   -4.7051 O.2       3 UNK        -0.5208 
     27 CA         24.4896    1.0736   -3.8285 C.3       3 UNK         0.0250 
     28 CB         23.6675    2.3670   -3.6451 C.3       3 UNK        -0.1990 
     29 N          25.5106    0.9321   -2.7839 N.am      3 UNK        -0.4232 
     30 C          25.3260    0.7868   -1.4616 C.2       2 UNK         0.4993 
     31 O          24.2281    0.8653   -0.9090 O.2       2 UNK        -0.5286 
     32 CA         26.5822    0.4598   -0.6232 C.3       2 UNK         0.0209 
     33 CB         26.2467   -0.3744    0.6320 C.3       2 UNK        -0.1931 
     34 N          27.6586   -0.1883   -1.3917 N.am      2 UNK        -0.4546 
     35 C          27.5849   -1.3414   -2.0795 C.2       1 UNK         0.5154 
     36 O          26.5619   -2.0201   -2.1711 O.2       1 UNK        -0.5181 
     37 C          25.3253   -2.1865   -7.7566 C.2       5 UNK         0.5014 
     38 O          24.2680   -1.5645   -7.6304 O.2       5 UNK        -0.5248 
     39 N          26.1400   -2.0240   -8.8062 N.am      6 UNK        -0.4434 
     40 CA         25.9190   -1.1050   -9.9271 C.3       6 UNK         0.0363 
     41 CB         26.9089   -1.4555  -11.0514 C.3       6 UNK        -0.1936 
     42 C          26.0373    0.3883   -9.5636 C.2       6 UNK         0.5081 
     43 O          25.6825    1.2281  -10.3917 O.2       6 UNK        -0.5248 
     44 N          26.5704    0.7008   -8.3713 N.am      7 UNK        -0.4718 
     45 CA         26.8520    2.0275   -7.8011 C.3       7 UNK         0.0273 
     46 CB         25.5824    2.8932   -7.6867 C.3       7 UNK        -0.1935 
     47 C          27.9905    2.7732   -8.5184 C.2       7 UNK         0.5018 
     48 O          28.9504    3.1849   -7.8659 O.2       7 UNK        -0.5186 
     49 N          27.9058    2.8667   -9.8519 N.am      8 UNK        -0.4240 
     50 CA         28.8948    3.4698  -10.7538 C.3       8 UNK         0.0235 
     51 CB         28.3326    3.4604  -12.1846 C.3       8 UNK        -0.2000 
     52 C          30.2844    2.8037  -10.7174 C.2       8 UNK         0.4941 
     53 O          31.2607    3.4298  -11.1305 O.2       8 UNK        -0.5273 
     54 N          30.3558    1.5663  -10.2043 N.am      9 UNK        -0.4262 
     55 CA         31.5918    0.8348   -9.9178 C.3       9 UNK         0.0264 
     56 CB         31.2382   -0.6133   -9.5373 C.3       9 UNK        -0.1955 
     57 C          32.4523    1.4848   -8.8151 C.2       9 UNK         0.5031 
     58 O          33.6643    1.2687   -8.8067 O.2       9 UNK        -0.5390 
     59 N          31.8198    2.2586   -7.9148 N.am      10 UNK        -0.4204 
     60 CA         32.4246    3.0346   -6.8221 C.3       10 UNK         0.0237 
     61 CB         33.2704    4.1940   -7.3911 C.3       10 UNK        -0.1985 
     62 C          33.1943    2.2004   -5.7737 C.2       10 UNK         0.4970 
     63 O          34.0649    2.7432   -5.0913 O.2       10 UNK        -0.4914 
     64 N          32.8571    0.9098   -5.6497 N.am      11 UNK        -0.4285 
     65 CA         33.4269   -0.0310   -4.6764 C.3       11 UNK         0.1007 
     66 C          33.1234    0.3822   -3.2105 C.2       11 UNK         0.5703 
     67 N          34.1413    0.5632   -2.3813 N.am      11 UNK        -0.7361 
     68 O          31.9631    0.4838   -2.8140 O.2       11 UNK        -0.4986 
     69 C69        32.9215   -1.4728   -4.9221 C.3       12 UNK        -0.0947 
     70 S70        33.2711   -2.1123   -6.5927 S.3       12 UNK        -0.2240 
     71 C71        33.4125   -3.8985   -6.2602 C.3       12 UNK         0.0194 
     72 H72        29.7579    1.1424   -6.1472 H         1 UNK         0.0906 
     73 H73        28.7985    2.1928   -5.0994 H         1 UNK         0.0906 
     74 H74        30.3510    1.5974   -4.5434 H         1 UNK         0.0906 
     75 H75        30.3160   -0.2567   -3.2731 H         1 UNK         0.3140 
     76 H76        28.5190   -2.4414   -3.6559 H         1 UNK         0.1085 
     77 H77        30.8417   -2.5198   -2.5377 H         1 UNK         0.0836 
     78 H78        30.1101   -1.8778   -1.0987 H         1 UNK         0.0836 
     79 H79        30.4524   -6.2387   -1.9587 H         1 UNK         0.0731 
     80 H80        31.6155   -4.9610   -1.7152 H         1 UNK         0.0731 
     81 H81        32.8134   -4.3164   -3.6342 H         1 UNK         0.1312 
     82 H82        31.1727   -4.7452   -7.5706 H         1 UNK         0.1406 
     83 H83        28.8377   -5.8308   -4.1348 H         1 UNK         0.1631 
     84 H84        27.9236   -6.2056   -6.3059 H         1 UNK         0.0717 
     85 H85        29.0952   -6.5085   -7.5658 H         1 UNK         0.0717 
     86 H86        27.5514   -3.7620   -5.5536 H         1 UNK         0.0934 
     87 H87        27.7952   -2.3343   -6.5046 H         1 UNK         0.0934 
     88 H88        25.3967   -4.1765   -6.9909 H         1 UNK         0.0739 
     89 H89        25.5866   -2.1071   -4.8866 H         1 UNK         0.3093 
     90 H90        22.3130   -2.4959   -3.8585 H         1 UNK         0.0818 
     91 H91        23.1904   -3.0695   -1.5727 H         1 UNK         0.0819 
     92 H92        23.0448   -4.4818   -2.6073 H         1 UNK         0.0819 
     93 H93        24.6263   -3.7808   -2.3090 H         1 UNK         0.0819 
     94 H94        24.8509   -1.3369   -2.8900 H         1 UNK         0.3041 
     95 H95        25.0451    1.1746   -4.7623 H         1 UNK         0.0784 
     96 H96        23.0326    2.5527   -4.5123 H         1 UNK         0.0793 
     97 H97        23.0150    2.3141   -2.7733 H         1 UNK         0.0793 
     98 H98        24.3151    3.2360   -3.5292 H         1 UNK         0.0793 
     99 H99        26.4524    0.8118   -3.1331 H         1 UNK         0.3024 
    100 H100       26.9740    1.4215   -0.2874 H         1 UNK         0.1171 
    101 H101       25.5536    0.1577    1.2848 H         1 UNK         0.0786 
    102 H102       25.7823   -1.3265    0.3724 H         1 UNK         0.0786 
    103 H103       27.1408   -0.5866    1.2182 H         1 UNK         0.0786 
    104 H104       28.5368    0.3122   -1.4211 H         1 UNK         0.2977 
    105 H105       26.9781   -2.5923   -8.8387 H         1 UNK         0.3127 
    106 H106       24.9048   -1.2643  -10.2992 H         1 UNK         0.0770 
    107 H107       27.9443   -1.3274  -10.7335 H         1 UNK         0.0814 
    108 H108       26.7547   -0.8183  -11.9235 H         1 UNK         0.0814 
    109 H109       26.7844   -2.4866  -11.3829 H         1 UNK         0.0814 
    110 H110       26.8354   -0.0743   -7.7798 H         1 UNK         0.2983 
    111 H111       27.1923    1.8380   -6.7840 H         1 UNK         0.0947 
    112 H112       25.7938    3.8213   -7.1542 H         1 UNK         0.0806 
    113 H113       24.7992    2.3741   -7.1340 H         1 UNK         0.0806 
    114 H114       25.1782    3.1663   -8.6617 H         1 UNK         0.0806 
    115 H115       27.0816    2.4508  -10.2816 H         1 UNK         0.3000 
    116 H116       29.0302    4.5075  -10.4420 H         1 UNK         0.0850 
    117 H117       29.0291    3.9265  -12.8831 H         1 UNK         0.0810 
    118 H118       27.3956    4.0141  -12.2465 H         1 UNK         0.0810 
    119 H119       28.1460    2.4450  -12.5370 H         1 UNK         0.0810 
    120 H120       29.4925    1.1289   -9.9197 H         1 UNK         0.3040 
    121 H121       32.1889    0.8164  -10.8320 H         1 UNK         0.0766 
    122 H122       30.6369   -0.6619   -8.6285 H         1 UNK         0.0812 
    123 H123       32.1414   -1.1991   -9.3604 H         1 UNK         0.0812 
    124 H124       30.6857   -1.1114  -10.3342 H         1 UNK         0.0812 
    125 H125       30.8203    2.4018   -8.0286 H         1 UNK         0.3205 
    126 H126       31.5877    3.4803   -6.2824 H         1 UNK         0.0754 
    127 H127       33.5939    4.8724   -6.6007 H         1 UNK         0.0769 
    128 H128       32.6998    4.7849   -8.1079 H         1 UNK         0.0769 
    129 H129       34.1663    3.8301   -7.8951 H         1 UNK         0.0769 
    130 H130       32.1637    0.5293   -6.2733 H         1 UNK         0.2981 
    131 H131       34.5090   -0.0255   -4.8221 H         1 UNK         0.0541 
    132 H132       33.9518    0.8133   -1.4236 H         1 UNK         0.3459 
    133 H133       35.0945    0.4794   -2.6984 H         1 UNK         0.3459 
    134 H134       31.8448   -1.5448   -4.7590 H         1 UNK         0.0612 
    135 H135       33.3910   -2.1386   -4.1970 H         1 UNK         0.0612 
    136 H136       33.6479   -4.4135   -7.1926 H         1 UNK         0.0624 
    137 H137       34.2563   -4.0758   -5.5915 H         1 UNK         0.0624 
@<TRIPOS>BOND
     1    1    2 1    
     2    1   72 1    
     3    1   73 1    
     4    1   74 1    
     5    2    3 2    
     6    2    4 am   BACKBONE|DICT|INTERRES
     7    4    5 1    
     8    4   75 1    
     9    5    6 1    
    10    5   35 1    
    11    5   76 1    
    12    6    7 1    
    13    6   77 1    
    14    6   78 1    
    15    7    8 1    
    16    8    9 1    
    17    8   79 1    
    18    8   80 1    
    19    9   10 ar   
    20    9   14 ar   
    21   10   11 ar   
    22   10   81 1    
    23   11   12 ar   
    24   11   71 1    
    25   12   13 ar   
    26   12   82 1    
    27   13   14 ar   
    28   13   15 1    
    29   14   83 1    
    30   15   16 1    
    31   15   84 1    
    32   15   85 1    
    33   16   17 1    
    34   17   18 1    
    35   17   86 1    
    36   17   87 1    
    37   18   19 1    
    38   18   37 1    
    39   18   88 1    
    40   19   20 am   BACKBONE|DICT|INTERRES
    41   19   89 1    
    42   20   21 2    
    43   20   22 1    
    44   22   23 1    
    45   22   24 1    
    46   22   90 1    
    47   23   91 1    
    48   23   92 1    
    49   23   93 1    
    50   24   25 am   BACKBONE|DICT|INTERRES
    51   24   94 1    
    52   25   26 2    
    53   25   27 1    
    54   27   28 1    
    55   27   29 1    
    56   27   95 1    
    57   28   96 1    
    58   28   97 1    
    59   28   98 1    
    60   29   30 am   BACKBONE|DICT|INTERRES
    61   29   99 1    
    62   30   31 2    
    63   30   32 1    
    64   32   33 1    
    65   32   34 1    
    66   32  100 1    
    67   33  101 1    
    68   33  102 1    
    69   33  103 1    
    70   34   35 am   BACKBONE|DICT|INTERRES
    71   34  104 1    
    72   35   36 2    
    73   37   38 2    
    74   37   39 am   BACKBONE|DICT|INTERRES
    75   39   40 1    
    76   39  105 1    
    77   40   41 1    
    78   40   42 1    
    79   40  106 1    
    80   41  107 1    
    81   41  108 1    
    82   41  109 1    
    83   42   43 2    
    84   42   44 am   BACKBONE|DICT|INTERRES
    85   44   45 1    
    86   44  110 1    
    87   45   46 1    
    88   45   47 1    
    89   45  111 1    
    90   46  112 1    
    91   46  113 1    
    92   46  114 1    
    93   47   48 2    
    94   47   49 am   BACKBONE|DICT|INTERRES
    95   49   50 1    
    96   49  115 1    
    97   50   51 1    
    98   50   52 1    
    99   50  116 1    
   100   51  117 1    
   101   51  118 1    
   102   51  119 1    
   103   52   53 2    
   104   52   54 am   BACKBONE|DICT|INTERRES
   105   54   55 1    
   106   54  120 1    
   107   55   56 1    
   108   55   57 1    
   109   55  121 1    
   110   56  122 1    
   111   56  123 1    
   112   56  124 1    
   113   57   58 2    
   114   57   59 am   BACKBONE|DICT|INTERRES
   115   59   60 1    
   116   59  125 1    
   117   60   61 1    
   118   60   62 1    
   119   60  126 1    
   120   61  127 1    
   121   61  128 1    
   122   61  129 1    
   123   62   63 2    
   124   62   64 am   BACKBONE|DICT|INTERRES
   125   64   65 1    
   126   64  130 1    
   127   65   66 1    
   128   65   69 1    
   129   65  131 1    
   130   66   67 am   BACKBONE|DICT|INTERRES
   131   66   68 2    
   132   67  132 1    
   133   67  133 1    
   134   69   70 1    
   135   69  134 1    
   136   69  135 1    
   137   70   71 1    
   138   71  136 1    
   139   71  137 1    
@<TRIPOS>SUBSTRUCTURE
     1 UNK         1 GROUP             0       ****    0 ROOT    
