@<TRIPOS>MOLECULE
3R137
137   139    1
SMALL
USER_CHARGES


@<TRIPOS>ATOM
      1 CA         27.3534   -2.0351    2.6627 C.3       0 UNK        -0.2020 
      2 C          27.3447   -2.0053    1.1425 C.2       0 UNK         0.4855 
      3 O          27.3549   -0.9283    0.5485 O.2       0 UNK        -0.5197 
      4 N          27.3016   -3.1783    0.4997 N.am      1 UNK        -0.4892 
      5 CA         27.3656   -3.3724   -0.9582 C.3       1 UNK         0.0835 
      6 C6         27.9373   -4.7700   -1.3223 C.3       12 UNK        -0.0855 
      7 S7         29.5468   -5.1078   -0.5251 S.3       12 UNK        -0.2931 
      8 C8         30.7234   -4.8976   -1.9070 C.3       12 UNK         0.0378 
      9 C9         30.8082   -3.4777   -2.4674 C.ar      12 UNK        -0.0802 
     10 C10        31.0195   -3.2983   -3.8382 C.ar      12 UNK        -0.0944 
     11 C11        31.1351   -2.0156   -4.3791 C.ar      12 UNK        -0.0787 
     12 C12        31.0462   -0.9037   -3.5392 C.ar      12 UNK        -0.0862 
     13 C13        30.7797   -1.0594   -2.1756 C.ar      12 UNK        -0.0733 
     14 C14        30.7012   -2.3502   -1.6422 C.ar      12 UNK        -0.0832 
     15 C15        30.5619    0.1497   -1.2663 C.3       12 UNK         0.0240 
     16 S16        29.5507    1.4860   -2.0075 S.3       12 UNK        -0.2522 
     17 C17        28.0295    0.6186   -2.5339 C.3       12 UNK        -0.0967 
     18 CA         27.9450    0.5054   -4.0794 C.3       5 UNK         0.0660 
     19 N          27.3628   -0.7657   -4.5229 N.am      5 UNK        -0.4015 
     20 C          27.5684   -1.3072   -5.7333 C.2       4 UNK         0.4946 
     21 O          28.2531   -0.7831   -6.6094 O.2       4 UNK        -0.5353 
     22 CA         26.8670   -2.6397   -6.0339 C.3       4 UNK         0.0277 
     23 CB         27.6650   -3.8135   -5.4462 C.3       4 UNK        -0.1981 
     24 N          25.4925   -2.6554   -5.5297 N.am      4 UNK        -0.4209 
     25 C          24.4957   -1.9525   -6.0915 C.2       3 UNK         0.4942 
     26 O          24.6211   -1.3065   -7.1316 O.2       3 UNK        -0.5208 
     27 CA         23.1370   -1.9302   -5.3671 C.3       3 UNK         0.0250 
     28 CB         22.2063   -3.0105   -5.9405 C.3       3 UNK        -0.1990 
     29 N          23.2235   -2.0886   -3.9129 N.am      3 UNK        -0.4232 
     30 C          23.9112   -1.2958   -3.0794 C.2       2 UNK         0.4993 
     31 O          24.5694   -0.3217   -3.4480 O.2       2 UNK        -0.5286 
     32 CA         23.9225   -1.6786   -1.5895 C.3       2 UNK         0.0209 
     33 CB         22.8702   -2.7419   -1.1989 C.3       2 UNK        -0.1931 
     34 N          25.2567   -2.1062   -1.1540 N.am      2 UNK        -0.4546 
     35 C          26.0203   -3.0823   -1.6686 C.2       1 UNK         0.5154 
     36 O          25.7002   -3.7348   -2.6649 O.2       1 UNK        -0.5181 
     37 C          27.2590    1.7178   -4.7386 C.2       5 UNK         0.5014 
     38 O          27.9223    2.7172   -5.0150 O.2       5 UNK        -0.5248 
     39 N          25.9677    1.5858   -5.0721 N.am      6 UNK        -0.4434 
     40 CA         25.2306    2.5224   -5.9270 C.3       6 UNK         0.0363 
     41 CB         23.7458    2.1267   -5.9417 C.3       6 UNK        -0.1936 
     42 C          25.7795    2.6122   -7.3686 C.2       6 UNK         0.5081 
     43 O          25.4988    3.5957   -8.0538 O.2       6 UNK        -0.5248 
     44 N          26.5533    1.6057   -7.7978 N.am      7 UNK        -0.4718 
     45 CA         27.2003    1.5118   -9.1051 C.3       7 UNK         0.0273 
     46 CB         26.6922    0.2394   -9.8081 C.3       7 UNK        -0.1935 
     47 C          28.7356    1.5100   -8.9799 C.2       7 UNK         0.5018 
     48 O          29.4054    1.0044   -9.8832 O.2       7 UNK        -0.5186 
     49 N          29.2862    2.0729   -7.8897 N.am      8 UNK        -0.4240 
     50 CA         30.7188    2.0640   -7.5424 C.3       8 UNK         0.0235 
     51 CB         30.9289    2.7267   -6.1712 C.3       8 UNK        -0.2000 
     52 C          31.6845    2.6674   -8.5811 C.2       8 UNK         0.4941 
     53 O          32.8836    2.4005   -8.4992 O.2       8 UNK        -0.5273 
     54 N          31.1648    3.4302   -9.5538 N.am      9 UNK        -0.4262 
     55 CA         31.8982    3.8743  -10.7438 C.3       9 UNK         0.0264 
     56 CB         31.0252    4.8548  -11.5433 C.3       9 UNK        -0.1955 
     57 C          32.3600    2.7063  -11.6403 C.2       9 UNK         0.5031 
     58 O          33.4044    2.8226  -12.2833 O.2       9 UNK        -0.5390 
     59 N          31.5911    1.6083  -11.6506 N.am      10 UNK        -0.4204 
     60 CA         31.9415    0.3372  -12.2860 C.3       10 UNK         0.0237 
     61 CB         30.7600   -0.1461  -13.1441 C.3       10 UNK        -0.1985 
     62 C          32.3041   -0.7161  -11.2269 C.2       10 UNK         0.4970 
     63 O          33.2671   -1.4579  -11.4214 O.2       10 UNK        -0.4914 
     64 N          31.5317   -0.7558  -10.1315 N.am      11 UNK        -0.4285 
     65 CA         31.6615   -1.6762   -8.9909 C.3       11 UNK         0.1007 
     66 C          31.3640   -3.1711   -9.3275 C.2       11 UNK         0.5703 
     67 N          30.6576   -3.4702  -10.4118 N.am      11 UNK        -0.7361 
     68 O          31.7492   -4.0749   -8.5907 O.2       11 UNK        -0.4986 
     69 C69        32.9936   -1.4537   -8.2042 C.3       12 UNK        -0.0947 
     70 S70        33.0277   -1.8021   -6.4007 S.3       12 UNK        -0.2240 
     71 C71        31.2873   -1.8240   -5.8783 C.3       12 UNK         0.0194 
     72 H72        26.4821   -1.5102    3.0534 H         1 UNK         0.0906 
     73 H73        27.3395   -3.0534    3.0510 H         1 UNK         0.0906 
     74 H74        28.2475   -1.5403    3.0409 H         1 UNK         0.0906 
     75 H75        27.2770   -4.0320    1.0400 H         1 UNK         0.3140 
     76 H76        28.0549   -2.6306   -1.3598 H         1 UNK         0.1085 
     77 H77        28.0527   -4.8777   -2.4014 H         1 UNK         0.0836 
     78 H78        27.2404   -5.5530   -1.0180 H         1 UNK         0.0836 
     79 H79        30.4568   -5.6037   -2.6952 H         1 UNK         0.0731 
     80 H80        31.7164   -5.1867   -1.5607 H         1 UNK         0.0731 
     81 H81        31.0935   -4.1582   -4.4903 H         1 UNK         0.1312 
     82 H82        31.1412    0.0883   -3.9579 H         1 UNK         0.1406 
     83 H83        30.5319   -2.4770   -0.5815 H         1 UNK         0.1631 
     84 H84        31.5342    0.5588   -0.9895 H         1 UNK         0.0717 
     85 H85        30.0797   -0.1578   -0.3367 H         1 UNK         0.0717 
     86 H86        28.0320   -0.3698   -2.0758 H         1 UNK         0.0934 
     87 H87        27.1573    1.1251   -2.1153 H         1 UNK         0.0934 
     88 H88        28.9598    0.5105   -4.4751 H         1 UNK         0.0739 
     89 H89        26.6989   -1.2022   -3.9000 H         1 UNK         0.3093 
     90 H90        26.8347   -2.7651   -7.1187 H         1 UNK         0.0818 
     91 H91        28.6457   -3.8878   -5.9172 H         1 UNK         0.0819 
     92 H92        27.1561   -4.7642   -5.6055 H         1 UNK         0.0819 
     93 H93        27.8306   -3.6937   -4.3765 H         1 UNK         0.0819 
     94 H94        25.3217   -3.1550   -4.6626 H         1 UNK         0.3041 
     95 H95        22.6848   -0.9552   -5.5582 H         1 UNK         0.0784 
     96 H96        22.1011   -2.9015   -7.0211 H         1 UNK         0.0793 
     97 H97        22.5875   -4.0147   -5.7499 H         1 UNK         0.0793 
     98 H98        21.2061   -2.9426   -5.5121 H         1 UNK         0.0793 
     99 H99        22.7459   -2.8855   -3.5173 H         1 UNK         0.3024 
    100 H100       23.6895   -0.7627   -1.0436 H         1 UNK         0.1171 
    101 H101       22.8608   -2.8978   -0.1199 H         1 UNK         0.0786 
    102 H102       21.8643   -2.4271   -1.4806 H         1 UNK         0.0786 
    103 H103       23.0629   -3.7094   -1.6641 H         1 UNK         0.0786 
    104 H104       25.6649   -1.5765   -0.3904 H         1 UNK         0.2977 
    105 H105       25.4571    0.7779   -4.7228 H         1 UNK         0.3127 
    106 H106       25.3173    3.5157   -5.4818 H         1 UNK         0.0770 
    107 H107       23.5945    1.1587   -6.4194 H         1 UNK         0.0814 
    108 H108       23.1540    2.8571   -6.4949 H         1 UNK         0.0814 
    109 H109       23.3359    2.0730   -4.9329 H         1 UNK         0.0814 
    110 H110       26.7488    0.8387   -7.1656 H         1 UNK         0.2983 
    111 H111       26.9386    2.3721   -9.7242 H         1 UNK         0.0947 
    112 H112       27.0916    0.1581  -10.8198 H         1 UNK         0.0806 
    113 H113       25.6051    0.2392   -9.8893 H         1 UNK         0.0806 
    114 H114       26.9849   -0.6608   -9.2653 H         1 UNK         0.0806 
    115 H115       28.6627    2.4555   -7.1894 H         1 UNK         0.3000 
    116 H116       31.0083    1.0168   -7.4511 H         1 UNK         0.0850 
    117 H117       31.9884    2.7940   -5.9195 H         1 UNK         0.0810 
    118 H118       30.4573    2.1509   -5.3767 H         1 UNK         0.0810 
    119 H119       30.5210    3.7376   -6.1443 H         1 UNK         0.0810 
    120 H120       30.1731    3.6170   -9.5310 H         1 UNK         0.3040 
    121 H121       32.7916    4.4044  -10.4070 H         1 UNK         0.0766 
    122 H122       30.7552    5.7254  -10.9452 H         1 UNK         0.0812 
    123 H123       30.1040    4.3859  -11.8917 H         1 UNK         0.0812 
    124 H124       31.5569    5.2208  -12.4228 H         1 UNK         0.0812 
    125 H125       30.7570    1.6010  -11.0691 H         1 UNK         0.3205 
    126 H126       32.8070    0.4631  -12.9399 H         1 UNK         0.0754 
    127 H127       30.9863   -1.1019  -13.6188 H         1 UNK         0.0769 
    128 H128       30.5360    0.5650  -13.9395 H         1 UNK         0.0769 
    129 H129       29.8534   -0.2789  -12.5520 H         1 UNK         0.0769 
    130 H130       30.7306   -0.1293  -10.0794 H         1 UNK         0.2981 
    131 H131       30.8272   -1.3686   -8.3663 H         1 UNK         0.0541 
    132 H132       30.3215   -2.7435  -11.0221 H         1 UNK         0.3459 
    133 H133       30.4623   -4.4366  -10.6200 H         1 UNK         0.3459 
    134 H134       33.8038   -2.0152   -8.6723 H         1 UNK         0.0612 
    135 H135       33.2881   -0.4069   -8.2941 H         1 UNK         0.0612 
    136 H136       30.8201   -0.8822   -6.1626 H         1 UNK         0.0624 
    137 H137       30.7517   -2.6171   -6.4003 H         1 UNK         0.0624 
@<TRIPOS>BOND
     1    1    2 1    
     2    1   72 1    
     3    1   73 1    
     4    1   74 1    
     5    2    3 2    
     6    2    4 am   BACKBONE|DICT|INTERRES
     7    4    5 1    
     8    4   75 1    
     9    5    6 1    
    10    5   35 1    
    11    5   76 1    
    12    6    7 1    
    13    6   77 1    
    14    6   78 1    
    15    7    8 1    
    16    8    9 1    
    17    8   79 1    
    18    8   80 1    
    19    9   10 ar   
    20    9   14 ar   
    21   10   11 ar   
    22   10   81 1    
    23   11   12 ar   
    24   11   71 1    
    25   12   13 ar   
    26   12   82 1    
    27   13   14 ar   
    28   13   15 1    
    29   14   83 1    
    30   15   16 1    
    31   15   84 1    
    32   15   85 1    
    33   16   17 1    
    34   17   18 1    
    35   17   86 1    
    36   17   87 1    
    37   18   19 1    
    38   18   37 1    
    39   18   88 1    
    40   19   20 am   BACKBONE|DICT|INTERRES
    41   19   89 1    
    42   20   21 2    
    43   20   22 1    
    44   22   23 1    
    45   22   24 1    
    46   22   90 1    
    47   23   91 1    
    48   23   92 1    
    49   23   93 1    
    50   24   25 am   BACKBONE|DICT|INTERRES
    51   24   94 1    
    52   25   26 2    
    53   25   27 1    
    54   27   28 1    
    55   27   29 1    
    56   27   95 1    
    57   28   96 1    
    58   28   97 1    
    59   28   98 1    
    60   29   30 am   BACKBONE|DICT|INTERRES
    61   29   99 1    
    62   30   31 2    
    63   30   32 1    
    64   32   33 1    
    65   32   34 1    
    66   32  100 1    
    67   33  101 1    
    68   33  102 1    
    69   33  103 1    
    70   34   35 am   BACKBONE|DICT|INTERRES
    71   34  104 1    
    72   35   36 2    
    73   37   38 2    
    74   37   39 am   BACKBONE|DICT|INTERRES
    75   39   40 1    
    76   39  105 1    
    77   40   41 1    
    78   40   42 1    
    79   40  106 1    
    80   41  107 1    
    81   41  108 1    
    82   41  109 1    
    83   42   43 2    
    84   42   44 am   BACKBONE|DICT|INTERRES
    85   44   45 1    
    86   44  110 1    
    87   45   46 1    
    88   45   47 1    
    89   45  111 1    
    90   46  112 1    
    91   46  113 1    
    92   46  114 1    
    93   47   48 2    
    94   47   49 am   BACKBONE|DICT|INTERRES
    95   49   50 1    
    96   49  115 1    
    97   50   51 1    
    98   50   52 1    
    99   50  116 1    
   100   51  117 1    
   101   51  118 1    
   102   51  119 1    
   103   52   53 2    
   104   52   54 am   BACKBONE|DICT|INTERRES
   105   54   55 1    
   106   54  120 1    
   107   55   56 1    
   108   55   57 1    
   109   55  121 1    
   110   56  122 1    
   111   56  123 1    
   112   56  124 1    
   113   57   58 2    
   114   57   59 am   BACKBONE|DICT|INTERRES
   115   59   60 1    
   116   59  125 1    
   117   60   61 1    
   118   60   62 1    
   119   60  126 1    
   120   61  127 1    
   121   61  128 1    
   122   61  129 1    
   123   62   63 2    
   124   62   64 am   BACKBONE|DICT|INTERRES
   125   64   65 1    
   126   64  130 1    
   127   65   66 1    
   128   65   69 1    
   129   65  131 1    
   130   66   67 am   BACKBONE|DICT|INTERRES
   131   66   68 2    
   132   67  132 1    
   133   67  133 1    
   134   69   70 1    
   135   69  134 1    
   136   69  135 1    
   137   70   71 1    
   138   71  136 1    
   139   71  137 1    
@<TRIPOS>SUBSTRUCTURE
     1 UNK         1 GROUP             0       ****    0 ROOT    
