@<TRIPOS>MOLECULE
3R137
137   139    1
SMALL
USER_CHARGES


@<TRIPOS>ATOM
      1 CA         30.7422    1.3128   -0.2861 C.3       0 UNK        -0.2020 
      2 C          29.9103    0.3990   -1.1732 C.2       0 UNK         0.4855 
      3 O          29.6596    0.7417   -2.3269 O.2       0 UNK        -0.5197 
      4 N          29.4890   -0.7553   -0.6355 N.am      1 UNK        -0.4892 
      5 CA         28.6863   -1.7867   -1.3072 C.3       1 UNK         0.0835 
      6 C6         28.5240   -3.0228   -0.3837 C.3       12 UNK        -0.0855 
      7 S7         27.8775   -4.5137   -1.2127 S.3       12 UNK        -0.2931 
      8 C8         29.4000   -5.4749   -1.4967 C.3       12 UNK         0.0378 
      9 C9         30.1303   -4.9765   -2.7324 C.ar      12 UNK        -0.0802 
     10 C10        31.1981   -4.0790   -2.6229 C.ar      12 UNK        -0.0944 
     11 C11        31.8184   -3.5800   -3.7728 C.ar      12 UNK        -0.0787 
     12 C12        31.3794   -3.9990   -5.0319 C.ar      12 UNK        -0.0862 
     13 C13        30.3052   -4.8844   -5.1504 C.ar      12 UNK        -0.0733 
     14 C14        29.6987   -5.3861   -3.9967 C.ar      12 UNK        -0.0832 
     15 C15        29.7484   -5.2351   -6.5233 C.3       12 UNK         0.0240 
     16 S16        28.0582   -4.5831   -6.7494 S.3       12 UNK        -0.2522 
     17 C17        28.2628   -2.8296   -6.2808 C.3       12 UNK        -0.0967 
     18 CA         27.5215   -1.8717   -7.2374 C.3       5 UNK         0.0660 
     19 N          26.0743   -2.0915   -7.2113 N.am      5 UNK        -0.4015 
     20 C          25.1756   -1.4716   -7.9873 C.2       4 UNK         0.4946 
     21 O          25.4741   -0.6730   -8.8747 O.2       4 UNK        -0.5353 
     22 CA         23.6887   -1.7438   -7.6860 C.3       4 UNK         0.0277 
     23 CB         23.1582   -2.8696   -8.5874 C.3       4 UNK        -0.1981 
     24 N          23.4064   -2.0665   -6.2788 N.am      4 UNK        -0.4209 
     25 C          23.7120   -1.2809   -5.2355 C.2       3 UNK         0.4942 
     26 O          24.2644   -0.1841   -5.3621 O.2       3 UNK        -0.5208 
     27 CA         23.3968   -1.8122   -3.8257 C.3       3 UNK         0.0250 
     28 CB         23.4755   -3.3482   -3.7087 C.3       3 UNK        -0.1990 
     29 N          24.3571   -1.2092   -2.9103 N.am      3 UNK        -0.4232 
     30 C          24.1348   -0.7284   -1.6888 C.2       2 UNK         0.4993 
     31 O          23.0715   -0.8689   -1.0811 O.2       2 UNK        -0.5286 
     32 CA         25.2984    0.0738   -1.0625 C.3       2 UNK         0.0209 
     33 CB         24.9075    0.7225    0.2791 C.3       2 UNK        -0.1931 
     34 N          26.5489   -0.6740   -0.8686 N.am      2 UNK        -0.4546 
     35 C          27.3368   -1.2267   -1.8060 C.2       1 UNK         0.5154 
     36 O          27.0755   -1.2493   -3.0106 O.2       1 UNK        -0.5181 
     37 C          27.9130   -0.4128   -6.9267 C.2       5 UNK         0.5014 
     38 O          28.8434    0.0947   -7.5536 O.2       5 UNK        -0.5248 
     39 N          27.2020    0.2433   -5.9968 N.am      6 UNK        -0.4434 
     40 CA         27.4227    1.6483   -5.6469 C.3       6 UNK         0.0363 
     41 CB         26.7681    1.9720   -4.2953 C.3       6 UNK        -0.1936 
     42 C          26.9096    2.5986   -6.7371 C.2       6 UNK         0.5081 
     43 O          27.5574    3.6096   -7.0053 O.2       6 UNK        -0.5248 
     44 N          25.7818    2.2442   -7.3708 N.am      7 UNK        -0.4718 
     45 CA         25.2111    2.9709   -8.5096 C.3       7 UNK         0.0273 
     46 CB         23.7900    2.4588   -8.7944 C.3       7 UNK        -0.1935 
     47 C          26.0964    2.8749   -9.7646 C.2       7 UNK         0.5018 
     48 O          26.2741    3.8750  -10.4606 O.2       7 UNK        -0.5186 
     49 N          26.6629    1.6847  -10.0061 N.am      8 UNK        -0.4240 
     50 CA         27.6400    1.4184  -11.0649 C.3       8 UNK         0.0235 
     51 CB         27.7331   -0.1019  -11.2780 C.3       8 UNK        -0.2000 
     52 C          29.0400    1.9954  -10.7777 C.2       8 UNK         0.4941 
     53 O          29.8344    2.1096  -11.7118 O.2       8 UNK        -0.5273 
     54 N          29.3248    2.3126   -9.5043 N.am      9 UNK        -0.4262 
     55 CA         30.6221    2.7152   -8.9445 C.3       9 UNK         0.0264 
     56 CB         31.0656    4.0873   -9.4938 C.3       9 UNK        -0.1955 
     57 C          31.6924    1.6170   -9.1111 C.2       9 UNK         0.5031 
     58 O          32.8474    1.9121   -9.4273 O.2       9 UNK        -0.5390 
     59 N          31.2814    0.3595   -8.8945 N.am      10 UNK        -0.4204 
     60 CA         32.0818   -0.8485   -9.1155 C.3       10 UNK         0.0237 
     61 CB         31.1681   -2.0812   -9.0225 C.3       10 UNK        -0.1985 
     62 C          33.2805   -0.9937   -8.1628 C.2       10 UNK         0.4970 
     63 O          34.2385   -1.6849   -8.5110 O.2       10 UNK        -0.4914 
     64 N          33.2125   -0.3486   -6.9916 N.am      11 UNK        -0.4285 
     65 CA         34.2891   -0.3197   -5.9892 C.3       11 UNK         0.1007 
     66 C          35.4927    0.5931   -6.3691 C.2       11 UNK         0.5703 
     67 N          35.4116    1.4100   -7.4147 N.am      11 UNK        -0.7361 
     68 O          36.5249    0.5529   -5.7038 O.2       11 UNK        -0.4986 
     69 C69        33.7663    0.0127   -4.5627 C.3       12 UNK        -0.0947 
     70 S70        32.2596   -0.9003   -4.0924 S.3       12 UNK        -0.2240 
     71 C71        32.9228   -2.5411   -3.6763 C.3       12 UNK         0.0194 
     72 H72        31.7213    1.4778   -0.7354 H         1 UNK         0.0906 
     73 H73        30.2502    2.2790   -0.1775 H         1 UNK         0.0906 
     74 H74        30.8921    0.8944    0.7090 H         1 UNK         0.0906 
     75 H75        29.7377   -0.9565    0.3227 H         1 UNK         0.3140 
     76 H76        29.2461   -2.0900   -2.1948 H         1 UNK         0.1085 
     77 H77        29.4866   -3.2740    0.0642 H         1 UNK         0.0836 
     78 H78        27.8693   -2.7945    0.4593 H         1 UNK         0.0836 
     79 H79        30.0454   -5.4406   -0.6177 H         1 UNK         0.0731 
     80 H80        29.1320   -6.5240   -1.6321 H         1 UNK         0.0731 
     81 H81        31.5218   -3.7426   -1.6475 H         1 UNK         0.1312 
     82 H82        31.8437   -3.5905   -5.9194 H         1 UNK         0.1406 
     83 H83        28.8535   -6.0557   -4.0854 H         1 UNK         0.1631 
     84 H84        29.7337   -6.3191   -6.6441 H         1 UNK         0.0717 
     85 H85        30.3879   -4.8434   -7.3159 H         1 UNK         0.0717 
     86 H86        27.9152   -2.7040   -5.2528 H         1 UNK         0.0934 
     87 H87        29.3250   -2.5852   -6.2633 H         1 UNK         0.0934 
     88 H88        27.8580   -2.0781   -8.2557 H         1 UNK         0.0739 
     89 H89        25.7399   -2.7525   -6.5266 H         1 UNK         0.3093 
     90 H90        23.1419   -0.8291   -7.9242 H         1 UNK         0.0818 
     91 H91        22.0833   -3.0043   -8.4652 H         1 UNK         0.0819 
     92 H92        23.3356   -2.6421   -9.6397 H         1 UNK         0.0819 
     93 H93        23.6443   -3.8225   -8.3740 H         1 UNK         0.0819 
     94 H94        22.9544   -2.9516   -6.0988 H         1 UNK         0.3041 
     95 H95        22.3884   -1.4799   -3.5711 H         1 UNK         0.0784 
     96 H96        22.7003   -3.8378   -4.2988 H         1 UNK         0.0793 
     97 H97        24.4428   -3.7303   -4.0387 H         1 UNK         0.0793 
     98 H98        23.3323   -3.6683   -2.6762 H         1 UNK         0.0793 
     99 H99        25.2945   -1.0775   -3.2871 H         1 UNK         0.3024 
    100 H100       25.5135    0.8852   -1.7604 H         1 UNK         0.1171 
    101 H101       24.0114    1.3356    0.1725 H         1 UNK         0.0786 
    102 H102       25.6975    1.3751    0.6514 H         1 UNK         0.0786 
    103 H103       24.7010   -0.0272    1.0440 H         1 UNK         0.0786 
    104 H104       26.8786   -0.7172    0.0843 H         1 UNK         0.2977 
    105 H105       26.4183   -0.2167   -5.5498 H         1 UNK         0.3127 
    106 H106       28.4983    1.8101   -5.5436 H         1 UNK         0.0770 
    107 H107       26.9107    3.0217   -4.0354 H         1 UNK         0.0814 
    108 H108       27.2148    1.3833   -3.4954 H         1 UNK         0.0814 
    109 H109       25.6951    1.7805   -4.3026 H         1 UNK         0.0814 
    110 H110       25.3144    1.3946   -7.0825 H         1 UNK         0.2983 
    111 H111       25.1434    4.0257   -8.2338 H         1 UNK         0.0947 
    112 H112       23.3289    3.0259   -9.6042 H         1 UNK         0.0806 
    113 H113       23.1475    2.5625   -7.9198 H         1 UNK         0.0806 
    114 H114       23.7864    1.4099   -9.0909 H         1 UNK         0.0806 
    115 H115       26.3825    0.8908   -9.4334 H         1 UNK         0.3000 
    116 H116       27.2790    1.8756  -11.9886 H         1 UNK         0.0850 
    117 H117       28.4250   -0.3441  -12.0858 H         1 UNK         0.0810 
    118 H118       26.7641   -0.5258  -11.5423 H         1 UNK         0.0810 
    119 H119       28.0865   -0.6116  -10.3808 H         1 UNK         0.0810 
    120 H120       28.5986    2.1489   -8.8194 H         1 UNK         0.3040 
    121 H121       30.4650    2.8256   -7.8704 H         1 UNK         0.0766 
    122 H122       31.9605    4.4415   -8.9807 H         1 UNK         0.0812 
    123 H123       30.2903    4.8399   -9.3502 H         1 UNK         0.0812 
    124 H124       31.2990    4.0432  -10.5579 H         1 UNK         0.0812 
    125 H125       30.3305    0.2245   -8.5493 H         1 UNK         0.3205 
    126 H126       32.4808   -0.7952  -10.1306 H         1 UNK         0.0754 
    127 H127       31.7204   -2.9963   -9.2405 H         1 UNK         0.0769 
    128 H128       30.3446   -2.0221   -9.7345 H         1 UNK         0.0769 
    129 H129       30.7434   -2.1869   -8.0253 H         1 UNK         0.0769 
    130 H130       32.3853    0.1864   -6.7753 H         1 UNK         0.2981 
    131 H131       34.7017   -1.3289   -5.9451 H         1 UNK         0.0541 
    132 H132       34.5739    1.4511   -7.9796 H         1 UNK         0.3459 
    133 H133       36.2021    1.9899   -7.6472 H         1 UNK         0.3459 
    134 H134       34.5380   -0.1817   -3.8156 H         1 UNK         0.0612 
    135 H135       33.5316    1.0760   -4.4875 H         1 UNK         0.0612 
    136 H136       33.3554   -2.5154   -2.6751 H         1 UNK         0.0624 
    137 H137       33.7282   -2.8074   -4.3615 H         1 UNK         0.0624 
@<TRIPOS>BOND
     1    1    2 1    
     2    1   72 1    
     3    1   73 1    
     4    1   74 1    
     5    2    3 2    
     6    2    4 am   BACKBONE|DICT|INTERRES
     7    4    5 1    
     8    4   75 1    
     9    5    6 1    
    10    5   35 1    
    11    5   76 1    
    12    6    7 1    
    13    6   77 1    
    14    6   78 1    
    15    7    8 1    
    16    8    9 1    
    17    8   79 1    
    18    8   80 1    
    19    9   10 ar   
    20    9   14 ar   
    21   10   11 ar   
    22   10   81 1    
    23   11   12 ar   
    24   11   71 1    
    25   12   13 ar   
    26   12   82 1    
    27   13   14 ar   
    28   13   15 1    
    29   14   83 1    
    30   15   16 1    
    31   15   84 1    
    32   15   85 1    
    33   16   17 1    
    34   17   18 1    
    35   17   86 1    
    36   17   87 1    
    37   18   19 1    
    38   18   37 1    
    39   18   88 1    
    40   19   20 am   BACKBONE|DICT|INTERRES
    41   19   89 1    
    42   20   21 2    
    43   20   22 1    
    44   22   23 1    
    45   22   24 1    
    46   22   90 1    
    47   23   91 1    
    48   23   92 1    
    49   23   93 1    
    50   24   25 am   BACKBONE|DICT|INTERRES
    51   24   94 1    
    52   25   26 2    
    53   25   27 1    
    54   27   28 1    
    55   27   29 1    
    56   27   95 1    
    57   28   96 1    
    58   28   97 1    
    59   28   98 1    
    60   29   30 am   BACKBONE|DICT|INTERRES
    61   29   99 1    
    62   30   31 2    
    63   30   32 1    
    64   32   33 1    
    65   32   34 1    
    66   32  100 1    
    67   33  101 1    
    68   33  102 1    
    69   33  103 1    
    70   34   35 am   BACKBONE|DICT|INTERRES
    71   34  104 1    
    72   35   36 2    
    73   37   38 2    
    74   37   39 am   BACKBONE|DICT|INTERRES
    75   39   40 1    
    76   39  105 1    
    77   40   41 1    
    78   40   42 1    
    79   40  106 1    
    80   41  107 1    
    81   41  108 1    
    82   41  109 1    
    83   42   43 2    
    84   42   44 am   BACKBONE|DICT|INTERRES
    85   44   45 1    
    86   44  110 1    
    87   45   46 1    
    88   45   47 1    
    89   45  111 1    
    90   46  112 1    
    91   46  113 1    
    92   46  114 1    
    93   47   48 2    
    94   47   49 am   BACKBONE|DICT|INTERRES
    95   49   50 1    
    96   49  115 1    
    97   50   51 1    
    98   50   52 1    
    99   50  116 1    
   100   51  117 1    
   101   51  118 1    
   102   51  119 1    
   103   52   53 2    
   104   52   54 am   BACKBONE|DICT|INTERRES
   105   54   55 1    
   106   54  120 1    
   107   55   56 1    
   108   55   57 1    
   109   55  121 1    
   110   56  122 1    
   111   56  123 1    
   112   56  124 1    
   113   57   58 2    
   114   57   59 am   BACKBONE|DICT|INTERRES
   115   59   60 1    
   116   59  125 1    
   117   60   61 1    
   118   60   62 1    
   119   60  126 1    
   120   61  127 1    
   121   61  128 1    
   122   61  129 1    
   123   62   63 2    
   124   62   64 am   BACKBONE|DICT|INTERRES
   125   64   65 1    
   126   64  130 1    
   127   65   66 1    
   128   65   69 1    
   129   65  131 1    
   130   66   67 am   BACKBONE|DICT|INTERRES
   131   66   68 2    
   132   67  132 1    
   133   67  133 1    
   134   69   70 1    
   135   69  134 1    
   136   69  135 1    
   137   70   71 1    
   138   71  136 1    
   139   71  137 1    
@<TRIPOS>SUBSTRUCTURE
     1 UNK         1 GROUP             0       ****    0 ROOT    
