@<TRIPOS>MOLECULE
3R137
137   139    1
SMALL
USER_CHARGES


@<TRIPOS>ATOM
      1 CA         28.6809    0.3565    2.7510 C.3       0 UNK        -0.2020 
      2 C          27.7041   -0.7281    3.1978 C.2       0 UNK         0.4855 
      3 O          27.3297   -0.7590    4.3686 O.2       0 UNK        -0.5197 
      4 N          27.2572   -1.6283    2.3150 N.am      1 UNK        -0.4892 
      5 CA         27.5586   -1.7033    0.8862 C.3       1 UNK         0.0835 
      6 C6         28.8795   -2.4699    0.6083 C.3       12 UNK        -0.0855 
      7 S7         29.6016   -2.0438   -1.0140 S.3       12 UNK        -0.2931 
      8 C8         29.6178   -3.6853   -1.8105 C.3       12 UNK         0.0378 
      9 C9         30.0502   -3.6543   -3.2738 C.ar      12 UNK        -0.0802 
     10 C10        31.1375   -2.8801   -3.6922 C.ar      12 UNK        -0.0944 
     11 C11        31.5590   -2.8983   -5.0246 C.ar      12 UNK        -0.0787 
     12 C12        30.8899   -3.7091   -5.9477 C.ar      12 UNK        -0.0862 
     13 C13        29.8129   -4.5047   -5.5404 C.ar      12 UNK        -0.0733 
     14 C14        29.3952   -4.4652   -4.2062 C.ar      12 UNK        -0.0832 
     15 C15        29.1445   -5.4642   -6.5183 C.3       12 UNK         0.0240 
     16 S16        28.1743   -4.6218   -7.8059 S.3       12 UNK        -0.2522 
     17 C17        26.7876   -3.9130   -6.8510 C.3       12 UNK        -0.0967 
     18 CA         26.1959   -2.6602   -7.5438 C.3       5 UNK         0.0660 
     19 N          24.9400   -2.2294   -6.9362 N.am      5 UNK        -0.4015 
     20 C          23.9280   -1.6680   -7.6129 C.2       4 UNK         0.4946 
     21 O          23.8833   -1.5866   -8.8411 O.2       4 UNK        -0.5353 
     22 CA         22.7667   -1.0803   -6.7884 C.3       4 UNK         0.0277 
     23 CB         21.6336   -2.1097   -6.6472 C.3       4 UNK        -0.1981 
     24 N          23.1602   -0.6082   -5.4577 N.am      4 UNK        -0.4209 
     25 C          24.0391    0.3764   -5.2203 C.2       3 UNK         0.4942 
     26 O          24.6043    1.0228   -6.1008 O.2       3 UNK        -0.5208 
     27 CA         24.3964    0.6454   -3.7497 C.3       3 UNK         0.0250 
     28 CB         23.4031    1.6415   -3.1306 C.3       3 UNK        -0.1990 
     29 N          24.4808   -0.5545   -2.9056 N.am      3 UNK        -0.4232 
     30 C          25.2130   -1.6477   -3.1645 C.2       2 UNK         0.4993 
     31 O          25.8649   -1.8154   -4.1976 O.2       2 UNK        -0.5286 
     32 CA         25.2827   -2.6921   -2.0503 C.3       2 UNK         0.0209 
     33 CB         25.5821   -4.1059   -2.5841 C.3       2 UNK        -0.1931 
     34 N          26.3535   -2.2604   -1.1619 N.am      2 UNK        -0.4546 
     35 C          26.3448   -2.3290    0.1713 C.2       1 UNK         0.5154 
     36 O          25.4358   -2.8469    0.8279 O.2       1 UNK        -0.5181 
     37 C          27.1825   -1.4820   -7.5451 C.2       5 UNK         0.5014 
     38 O          27.6771   -1.1143   -8.6098 O.2       5 UNK        -0.5248 
     39 N          27.4461   -0.9097   -6.3614 N.am      6 UNK        -0.4434 
     40 CA         28.4993    0.0800   -6.1243 C.3       6 UNK         0.0363 
     41 CB         28.5548    0.4290   -4.6299 C.3       6 UNK        -0.1936 
     42 C          28.4019    1.3479   -6.9899 C.2       6 UNK         0.5081 
     43 O          29.4342    1.8405   -7.4435 O.2       6 UNK        -0.5248 
     44 N          27.1792    1.8324   -7.2531 N.am      7 UNK        -0.4718 
     45 CA         26.9333    2.9866   -8.1255 C.3       7 UNK         0.0273 
     46 CB         25.4774    3.4521   -7.9683 C.3       7 UNK        -0.1935 
     47 C          27.2521    2.7208   -9.6086 C.2       7 UNK         0.5018 
     48 O          27.5828    3.6662  -10.3252 O.2       7 UNK        -0.5186 
     49 N          27.1504    1.4571  -10.0423 N.am      8 UNK        -0.4240 
     50 CA         27.4934    1.0184  -11.3955 C.3       8 UNK         0.0235 
     51 CB         26.5788   -0.1484  -11.8050 C.3       8 UNK        -0.2000 
     52 C          28.9715    0.6122  -11.4881 C.2       8 UNK         0.4941 
     53 O          29.6344    0.9600  -12.4658 O.2       8 UNK        -0.5273 
     54 N          29.4593   -0.1140  -10.4727 N.am      9 UNK        -0.4262 
     55 CA         30.8311   -0.6128  -10.3726 C.3       9 UNK         0.0264 
     56 CB         30.9049   -1.6692   -9.2566 C.3       9 UNK        -0.1955 
     57 C          31.8751    0.4876  -10.1269 C.2       9 UNK         0.5031 
     58 O          33.0354    0.2927  -10.4920 O.2       9 UNK        -0.5390 
     59 N          31.4749    1.5893   -9.4730 N.am      10 UNK        -0.4204 
     60 CA         32.2699    2.7522   -9.0443 C.3       10 UNK         0.0237 
     61 CB         32.9613    3.4490  -10.2327 C.3       10 UNK        -0.1985 
     62 C          33.2657    2.4517   -7.9076 C.2       10 UNK         0.4970 
     63 O          33.4588    3.3070   -7.0428 O.2       10 UNK        -0.4914 
     64 N          33.8498    1.2479   -7.9146 N.am      11 UNK        -0.4285 
     65 CA         34.6956    0.6580   -6.8650 C.3       11 UNK         0.1007 
     66 C          36.1008    1.3146   -6.7085 C.2       11 UNK         0.5703 
     67 N          36.5625    2.1238   -7.6547 N.am      11 UNK        -0.7361 
     68 O          36.8028    1.0616   -5.7318 O.2       11 UNK        -0.4986 
     69 C69        33.9550    0.4916   -5.5049 C.3       12 UNK        -0.0947 
     70 S70        32.3225   -0.3189   -5.6419 S.3       12 UNK        -0.2240 
     71 C71        32.7654   -2.0692   -5.4388 C.3       12 UNK         0.0194 
     72 H72        29.4972   -0.0501    2.1565 H         1 UNK         0.0906 
     73 H73        28.1643    1.1142    2.1626 H         1 UNK         0.0906 
     74 H74        29.1223    0.8506    3.6164 H         1 UNK         0.0906 
     75 H75        26.5514   -2.2978    2.6002 H         1 UNK         0.3140 
     76 H76        27.6431   -0.6836    0.5041 H         1 UNK         0.1085 
     77 H77        29.6314   -2.2224    1.3582 H         1 UNK         0.0836 
     78 H78        28.7334   -3.5482    0.6999 H         1 UNK         0.0836 
     79 H79        28.6231   -4.1246   -1.7221 H         1 UNK         0.0731 
     80 H80        30.2966   -4.3391   -1.2613 H         1 UNK         0.0731 
     81 H81        31.6673   -2.2650   -2.9777 H         1 UNK         0.1312 
     82 H82        31.2198   -3.7421   -6.9770 H         1 UNK         0.1406 
     83 H83        28.5764   -5.0948   -3.8866 H         1 UNK         0.1631 
     84 H84        28.4985   -6.1703   -5.9942 H         1 UNK         0.0717 
     85 H85        29.9153   -6.0646   -7.0035 H         1 UNK         0.0717 
     86 H86        26.0210   -4.6839   -6.7599 H         1 UNK         0.0934 
     87 H87        27.1069   -3.6845   -5.8328 H         1 UNK         0.0934 
     88 H88        26.0058   -2.9268   -8.5862 H         1 UNK         0.0739 
     89 H89        24.9295   -2.1953   -5.9226 H         1 UNK         0.3093 
     90 H90        22.3821   -0.2199   -7.3403 H         1 UNK         0.0818 
     91 H91        20.7649   -1.6794   -6.1485 H         1 UNK         0.0819 
     92 H92        21.3014   -2.4602   -7.6255 H         1 UNK         0.0819 
     93 H93        21.9503   -2.9849   -6.0783 H         1 UNK         0.0819 
     94 H94        22.7520   -1.0828   -4.6655 H         1 UNK         0.3041 
     95 H95        25.3830    1.1105   -3.7413 H         1 UNK         0.0784 
     96 H96        23.3357    2.5500   -3.7313 H         1 UNK         0.0793 
     97 H97        22.3988    1.2218   -3.0607 H         1 UNK         0.0793 
     98 H98        23.7128    1.9419   -2.1294 H         1 UNK         0.0793 
     99 H99        24.0014   -0.5030   -2.0179 H         1 UNK         0.3024 
    100 H100       24.3254   -2.7094   -1.5238 H         1 UNK         0.1171 
    101 H101       24.7995   -4.4375   -3.2674 H         1 UNK         0.0786 
    102 H102       26.5256   -4.1425   -3.1277 H         1 UNK         0.0786 
    103 H103       25.6356   -4.8316   -1.7725 H         1 UNK         0.0786 
    104 H104       27.1483   -1.8291   -1.6183 H         1 UNK         0.2977 
    105 H105       26.9550   -1.2527   -5.5374 H         1 UNK         0.3127 
    106 H106       29.4401   -0.4082   -6.3822 H         1 UNK         0.0770 
    107 H107       27.6334    0.9005   -4.2913 H         1 UNK         0.0814 
    108 H108       29.3733    1.1199   -4.4237 H         1 UNK         0.0814 
    109 H109       28.7241   -0.4607   -4.0221 H         1 UNK         0.0814 
    110 H110       26.3618    1.3843   -6.8448 H         1 UNK         0.2983 
    111 H111       27.5856    3.7983   -7.7955 H         1 UNK         0.0947 
    112 H112       25.2836    4.3413   -8.5697 H         1 UNK         0.0806 
    113 H113       25.2510    3.7055   -6.9324 H         1 UNK         0.0806 
    114 H114       24.7726    2.6826   -8.2864 H         1 UNK         0.0806 
    115 H115       26.9356    0.7300   -9.3699 H         1 UNK         0.3000 
    116 H116       27.3255    1.8371  -12.0989 H         1 UNK         0.0850 
    117 H117       26.8058   -0.4839  -12.8178 H         1 UNK         0.0810 
    118 H118       25.5297    0.1476  -11.7888 H         1 UNK         0.0810 
    119 H119       26.6914   -1.0084  -11.1437 H         1 UNK         0.0810 
    120 H120       28.8173   -0.4072   -9.7352 H         1 UNK         0.3040 
    121 H121       31.0810   -1.0967  -11.3191 H         1 UNK         0.0766 
    122 H122       30.6604   -1.2438   -8.2828 H         1 UNK         0.0812 
    123 H123       31.9069   -2.0940   -9.1834 H         1 UNK         0.0812 
    124 H124       30.2151   -2.4931   -9.4414 H         1 UNK         0.0812 
    125 H125       30.5303    1.5855   -9.0973 H         1 UNK         0.3205 
    126 H126       31.5429    3.4549   -8.6337 H         1 UNK         0.0754 
    127 H127       33.4380    4.3766   -9.9132 H         1 UNK         0.0769 
    128 H128       32.2437    3.7047  -11.0124 H         1 UNK         0.0769 
    129 H129       33.7361    2.8265  -10.6808 H         1 UNK         0.0769 
    130 H130       33.6727    0.6607   -8.7237 H         1 UNK         0.2981 
    131 H131       34.9130   -0.3481   -7.2243 H         1 UNK         0.0541 
    132 H132       37.4769    2.5348   -7.5515 H         1 UNK         0.3459 
    133 H133       36.0010    2.3321   -8.4644 H         1 UNK         0.3459 
    134 H134       33.7982    1.4673   -5.0426 H         1 UNK         0.0612 
    135 H135       34.5677   -0.0726   -4.8001 H         1 UNK         0.0612 
    136 H136       33.5425   -2.1703   -4.6799 H         1 UNK         0.0624 
    137 H137       33.1917   -2.4406   -6.3718 H         1 UNK         0.0624 
@<TRIPOS>BOND
     1    1    2 1    
     2    1   72 1    
     3    1   73 1    
     4    1   74 1    
     5    2    3 2    
     6    2    4 am   BACKBONE|DICT|INTERRES
     7    4    5 1    
     8    4   75 1    
     9    5    6 1    
    10    5   35 1    
    11    5   76 1    
    12    6    7 1    
    13    6   77 1    
    14    6   78 1    
    15    7    8 1    
    16    8    9 1    
    17    8   79 1    
    18    8   80 1    
    19    9   10 ar   
    20    9   14 ar   
    21   10   11 ar   
    22   10   81 1    
    23   11   12 ar   
    24   11   71 1    
    25   12   13 ar   
    26   12   82 1    
    27   13   14 ar   
    28   13   15 1    
    29   14   83 1    
    30   15   16 1    
    31   15   84 1    
    32   15   85 1    
    33   16   17 1    
    34   17   18 1    
    35   17   86 1    
    36   17   87 1    
    37   18   19 1    
    38   18   37 1    
    39   18   88 1    
    40   19   20 am   BACKBONE|DICT|INTERRES
    41   19   89 1    
    42   20   21 2    
    43   20   22 1    
    44   22   23 1    
    45   22   24 1    
    46   22   90 1    
    47   23   91 1    
    48   23   92 1    
    49   23   93 1    
    50   24   25 am   BACKBONE|DICT|INTERRES
    51   24   94 1    
    52   25   26 2    
    53   25   27 1    
    54   27   28 1    
    55   27   29 1    
    56   27   95 1    
    57   28   96 1    
    58   28   97 1    
    59   28   98 1    
    60   29   30 am   BACKBONE|DICT|INTERRES
    61   29   99 1    
    62   30   31 2    
    63   30   32 1    
    64   32   33 1    
    65   32   34 1    
    66   32  100 1    
    67   33  101 1    
    68   33  102 1    
    69   33  103 1    
    70   34   35 am   BACKBONE|DICT|INTERRES
    71   34  104 1    
    72   35   36 2    
    73   37   38 2    
    74   37   39 am   BACKBONE|DICT|INTERRES
    75   39   40 1    
    76   39  105 1    
    77   40   41 1    
    78   40   42 1    
    79   40  106 1    
    80   41  107 1    
    81   41  108 1    
    82   41  109 1    
    83   42   43 2    
    84   42   44 am   BACKBONE|DICT|INTERRES
    85   44   45 1    
    86   44  110 1    
    87   45   46 1    
    88   45   47 1    
    89   45  111 1    
    90   46  112 1    
    91   46  113 1    
    92   46  114 1    
    93   47   48 2    
    94   47   49 am   BACKBONE|DICT|INTERRES
    95   49   50 1    
    96   49  115 1    
    97   50   51 1    
    98   50   52 1    
    99   50  116 1    
   100   51  117 1    
   101   51  118 1    
   102   51  119 1    
   103   52   53 2    
   104   52   54 am   BACKBONE|DICT|INTERRES
   105   54   55 1    
   106   54  120 1    
   107   55   56 1    
   108   55   57 1    
   109   55  121 1    
   110   56  122 1    
   111   56  123 1    
   112   56  124 1    
   113   57   58 2    
   114   57   59 am   BACKBONE|DICT|INTERRES
   115   59   60 1    
   116   59  125 1    
   117   60   61 1    
   118   60   62 1    
   119   60  126 1    
   120   61  127 1    
   121   61  128 1    
   122   61  129 1    
   123   62   63 2    
   124   62   64 am   BACKBONE|DICT|INTERRES
   125   64   65 1    
   126   64  130 1    
   127   65   66 1    
   128   65   69 1    
   129   65  131 1    
   130   66   67 am   BACKBONE|DICT|INTERRES
   131   66   68 2    
   132   67  132 1    
   133   67  133 1    
   134   69   70 1    
   135   69  134 1    
   136   69  135 1    
   137   70   71 1    
   138   71  136 1    
   139   71  137 1    
@<TRIPOS>SUBSTRUCTURE
     1 UNK         1 GROUP             0       ****    0 ROOT    
