@<TRIPOS>MOLECULE
3R137
137   139    1
SMALL
USER_CHARGES


@<TRIPOS>ATOM
      1 CA         25.8081   -6.1397   -6.0390 C.3       0 UNK        -0.2020 
      2 C          25.8496   -5.6176   -4.6112 C.2       0 UNK         0.4855 
      3 O          24.8065   -5.2723   -4.0555 O.2       0 UNK        -0.5197 
      4 N          27.0496   -5.5419   -4.0199 N.am      1 UNK        -0.4892 
      5 CA         27.3129   -5.0399   -2.6659 C.3       1 UNK         0.0835 
      6 C6         28.8086   -5.2079   -2.3063 C.3       12 UNK        -0.0855 
      7 S7         29.1318   -4.9768   -0.5270 S.3       12 UNK        -0.2931 
      8 C8         30.8517   -4.3762   -0.5531 C.3       12 UNK         0.0378 
      9 C9         30.9863   -2.9776   -1.1451 C.ar      12 UNK        -0.0802 
     10 C10        31.7551   -2.7674   -2.2949 C.ar      12 UNK        -0.0944 
     11 C11        31.9421   -1.4757   -2.7971 C.ar      12 UNK        -0.0787 
     12 C12        31.3439   -0.3922   -2.1482 C.ar      12 UNK        -0.0862 
     13 C13        30.5467   -0.5900   -1.0158 C.ar      12 UNK        -0.0733 
     14 C14        30.3810   -1.8856   -0.5154 C.ar      12 UNK        -0.0832 
     15 C15        29.8756    0.5848   -0.3087 C.3       12 UNK         0.0240 
     16 S16        29.0747    1.7759   -1.4383 S.3       12 UNK        -0.2522 
     17 C17        27.9395    0.7107   -2.3893 C.3       12 UNK        -0.0967 
     18 CA         28.1365    0.8776   -3.9199 C.3       5 UNK         0.0660 
     19 N          27.8317   -0.3570   -4.6471 N.am      5 UNK        -0.4015 
     20 C          27.9582   -0.5427   -5.9690 C.2       4 UNK         0.4946 
     21 O          28.4306    0.2873   -6.7435 O.2       4 UNK        -0.5353 
     22 CA         27.3908   -1.8526   -6.5364 C.3       4 UNK         0.0277 
     23 CB         28.4029   -3.0032   -6.4074 C.3       4 UNK        -0.1981 
     24 N          26.1175   -2.2041   -5.9043 N.am      4 UNK        -0.4209 
     25 C          24.9743   -1.5310   -6.1096 C.2       3 UNK         0.4942 
     26 O          24.8638   -0.6032   -6.9102 O.2       3 UNK        -0.5208 
     27 CA         23.7639   -1.9209   -5.2457 C.3       3 UNK         0.0250 
     28 CB         22.9509   -3.0406   -5.9135 C.3       3 UNK        -0.1990 
     29 N          24.1526   -2.3181   -3.8898 N.am      3 UNK        -0.4232 
     30 C          24.6129   -1.4563   -2.9695 C.2       2 UNK         0.4993 
     31 O          24.7079   -0.2441   -3.1612 O.2       2 UNK        -0.5286 
     32 CA         25.1078   -2.0428   -1.6346 C.3       2 UNK         0.0209 
     33 CB         23.9503   -2.1483   -0.6297 C.3       2 UNK        -0.1931 
     34 N          25.7586   -3.3498   -1.7745 N.am      2 UNK        -0.4546 
     35 C          26.8448   -3.5767   -2.5262 C.2       1 UNK         0.5154 
     36 O          27.4291   -2.6930   -3.1538 O.2       1 UNK        -0.5181 
     37 C          27.3292    2.0781   -4.4583 C.2       5 UNK         0.5014 
     38 O          27.9089    3.1340   -4.7153 O.2       5 UNK        -0.5248 
     39 N          26.0138    1.8822   -4.6430 N.am      6 UNK        -0.4434 
     40 CA         25.0926    2.8664   -5.2160 C.3       6 UNK         0.0363 
     41 CB         23.6463    2.3684   -5.0670 C.3       6 UNK        -0.1936 
     42 C          25.4019    3.2056   -6.6847 C.2       6 UNK         0.5081 
     43 O          25.3278    4.3770   -7.0574 O.2       6 UNK        -0.5248 
     44 N          25.7500    2.1897   -7.4884 N.am      7 UNK        -0.4718 
     45 CA         26.1758    2.3499   -8.8828 C.3       7 UNK         0.0273 
     46 CB         26.1946    0.9780   -9.5756 C.3       7 UNK        -0.1935 
     47 C          27.5461    3.0365   -9.0192 C.2       7 UNK         0.5018 
     48 O          27.7629    3.7597   -9.9926 O.2       7 UNK        -0.5186 
     49 N          28.4455    2.7798   -8.0585 N.am      8 UNK        -0.4240 
     50 CA         29.8180    3.2766   -7.8994 C.3       8 UNK         0.0235 
     51 CB         29.8662    4.8135   -7.8031 C.3       8 UNK        -0.2000 
     52 C          30.7962    2.7425   -8.9569 C.2       8 UNK         0.4941 
     53 O          31.8464    2.2143   -8.5950 O.2       8 UNK        -0.5273 
     54 N          30.4253    2.8418  -10.2396 N.am      9 UNK        -0.4262 
     55 CA         31.1859    2.3435  -11.3910 C.3       9 UNK         0.0264 
     56 CB         30.5362    2.8691  -12.6814 C.3       9 UNK        -0.1955 
     57 C          31.3154    0.8084  -11.4390 C.2       9 UNK         0.5031 
     58 O          32.1983    0.2999  -12.1307 O.2       9 UNK        -0.5390 
     59 N          30.4387    0.1011  -10.7136 N.am      10 UNK        -0.4204 
     60 CA         30.4538   -1.3527  -10.5551 C.3       10 UNK         0.0237 
     61 CB         29.0953   -1.8008   -9.9981 C.3       10 UNK        -0.1985 
     62 C          31.5948   -1.8586   -9.6528 C.2       10 UNK         0.4970 
     63 O          32.0097   -3.0072   -9.8133 O.2       10 UNK        -0.4914 
     64 N          32.0734   -1.0195   -8.7238 N.am      11 UNK        -0.4285 
     65 CA         33.2178   -1.3185   -7.8529 C.3       11 UNK         0.1007 
     66 C          34.5599   -1.2724   -8.6328 C.2       11 UNK         0.5703 
     67 N          35.4981   -2.1505   -8.3043 N.am      11 UNK        -0.7361 
     68 O          34.7748   -0.4267   -9.4990 O.2       11 UNK        -0.4986 
     69 C69        33.2593   -0.3714   -6.6275 C.3       12 UNK        -0.0947 
     70 S70        31.8893   -0.6797   -5.4615 S.3       12 UNK        -0.2240 
     71 C71        32.8318   -1.2377   -4.0077 C.3       12 UNK         0.0194 
     72 H72        26.7714   -6.5392   -6.3555 H         1 UNK         0.0906 
     73 H73        25.0685   -6.9352   -6.1256 H         1 UNK         0.0906 
     74 H74        25.5304   -5.3399   -6.7248 H         1 UNK         0.0906 
     75 H75        27.8672   -5.8301   -4.5382 H         1 UNK         0.3140 
     76 H76        26.7288   -5.6585   -1.9810 H         1 UNK         0.1085 
     77 H77        29.4249   -4.5257   -2.8954 H         1 UNK         0.0836 
     78 H78        29.1446   -6.2137   -2.5638 H         1 UNK         0.0836 
     79 H79        31.4700   -5.0926   -1.0966 H         1 UNK         0.0731 
     80 H80        31.2320   -4.3616    0.4693 H         1 UNK         0.0731 
     81 H81        32.2306   -3.6064   -2.7843 H         1 UNK         0.1312 
     82 H82        31.4949    0.6071   -2.5329 H         1 UNK         0.1406 
     83 H83        29.7842   -2.0503    0.3717 H         1 UNK         0.1631 
     84 H84        30.6260    1.1123    0.2813 H         1 UNK         0.0717 
     85 H85        29.1233    0.2281    0.3965 H         1 UNK         0.0717 
     86 H86        28.1141   -0.3260   -2.1011 H         1 UNK         0.0934 
     87 H87        26.9138    0.9218   -2.0810 H         1 UNK         0.0934 
     88 H88        29.1922    1.0759   -4.1194 H         1 UNK         0.0739 
     89 H89        27.5191   -1.1469   -4.0855 H         1 UNK         0.3093 
     90 H90        27.1914   -1.6975   -7.5975 H         1 UNK         0.0818 
     91 H91        28.6523   -3.2189   -5.3689 H         1 UNK         0.0819 
     92 H92        28.0242   -3.9183   -6.8622 H         1 UNK         0.0819 
     93 H93        29.3370   -2.7532   -6.9128 H         1 UNK         0.0819 
     94 H94        26.1454   -2.9015   -5.1749 H         1 UNK         0.3041 
     95 H95        23.1195   -1.0426   -5.1674 H         1 UNK         0.0784 
     96 H96        22.6075   -2.7331   -6.9022 H         1 UNK         0.0793 
     97 H97        23.5364   -3.9503   -6.0426 H         1 UNK         0.0793 
     98 H98        22.0666   -3.2918   -5.3276 H         1 UNK         0.0793 
     99 H99        24.1525   -3.3119   -3.6821 H         1 UNK         0.3024 
    100 H100       25.8482   -1.3486   -1.2314 H         1 UNK         0.1171 
    101 H101       24.3031   -2.4708    0.3501 H         1 UNK         0.0786 
    102 H102       23.4627   -1.1817   -0.4942 H         1 UNK         0.0786 
    103 H103       23.1882   -2.8542   -0.9626 H         1 UNK         0.0786 
    104 H104       25.3094   -4.1314   -1.3188 H         1 UNK         0.2977 
    105 H105       25.6030    1.0064   -4.3280 H         1 UNK         0.3127 
    106 H106       25.1953    3.7866   -4.6370 H         1 UNK         0.0770 
    107 H107       23.4809    1.4397   -5.6136 H         1 UNK         0.0814 
    108 H108       22.9390    3.1041   -5.4521 H         1 UNK         0.0814 
    109 H109       23.3931    2.1907   -4.0216 H         1 UNK         0.0814 
    110 H110       25.7130    1.2419   -7.1257 H         1 UNK         0.2983 
    111 H111       25.4420    2.9797   -9.3907 H         1 UNK         0.0947 
    112 H112       26.4925    1.0696  -10.6210 H         1 UNK         0.0806 
    113 H113       25.2087    0.5130   -9.5587 H         1 UNK         0.0806 
    114 H114       26.8928    0.2935   -9.0941 H         1 UNK         0.0806 
    115 H115       28.1890    2.0676   -7.3777 H         1 UNK         0.3000 
    116 H116       30.1524    2.8803   -6.9387 H         1 UNK         0.0850 
    117 H117       30.8784    5.1564   -7.5852 H         1 UNK         0.0810 
    118 H118       29.2211    5.1760   -7.0024 H         1 UNK         0.0810 
    119 H119       29.5536    5.2952   -8.7298 H         1 UNK         0.0810 
    120 H120       29.5250    3.2789  -10.4262 H         1 UNK         0.3040 
    121 H121       32.1970    2.7503  -11.3230 H         1 UNK         0.0766 
    122 H122       30.5173    3.9590  -12.7009 H         1 UNK         0.0812 
    123 H123       29.5108    2.5134  -12.7903 H         1 UNK         0.0812 
    124 H124       31.0913    2.5406  -13.5614 H         1 UNK         0.0812 
    125 H125       29.7466    0.6112  -10.1856 H         1 UNK         0.3205 
    126 H126       30.5880   -1.8047  -11.5402 H         1 UNK         0.0754 
    127 H127       29.0641   -2.8814   -9.8511 H         1 UNK         0.0769 
    128 H128       28.2802   -1.5406  -10.6738 H         1 UNK         0.0769 
    129 H129       28.8993   -1.3313   -9.0356 H         1 UNK         0.0769 
    130 H130       31.7273   -0.0703   -8.6810 H         1 UNK         0.2981 
    131 H131       33.0908   -2.3374   -7.4804 H         1 UNK         0.0541 
    132 H132       35.3392   -2.8419   -7.5880 H         1 UNK         0.3459 
    133 H133       36.3819   -2.1260   -8.7886 H         1 UNK         0.3459 
    134 H134       34.2052   -0.4815   -6.0939 H         1 UNK         0.0612 
    135 H135       33.2201    0.6720   -6.9426 H         1 UNK         0.0612 
    136 H136       33.5784   -0.4842   -3.7520 H         1 UNK         0.0624 
    137 H137       33.3811   -2.1438   -4.2681 H         1 UNK         0.0624 
@<TRIPOS>BOND
     1    1    2 1    
     2    1   72 1    
     3    1   73 1    
     4    1   74 1    
     5    2    3 2    
     6    2    4 am   BACKBONE|DICT|INTERRES
     7    4    5 1    
     8    4   75 1    
     9    5    6 1    
    10    5   35 1    
    11    5   76 1    
    12    6    7 1    
    13    6   77 1    
    14    6   78 1    
    15    7    8 1    
    16    8    9 1    
    17    8   79 1    
    18    8   80 1    
    19    9   10 ar   
    20    9   14 ar   
    21   10   11 ar   
    22   10   81 1    
    23   11   12 ar   
    24   11   71 1    
    25   12   13 ar   
    26   12   82 1    
    27   13   14 ar   
    28   13   15 1    
    29   14   83 1    
    30   15   16 1    
    31   15   84 1    
    32   15   85 1    
    33   16   17 1    
    34   17   18 1    
    35   17   86 1    
    36   17   87 1    
    37   18   19 1    
    38   18   37 1    
    39   18   88 1    
    40   19   20 am   BACKBONE|DICT|INTERRES
    41   19   89 1    
    42   20   21 2    
    43   20   22 1    
    44   22   23 1    
    45   22   24 1    
    46   22   90 1    
    47   23   91 1    
    48   23   92 1    
    49   23   93 1    
    50   24   25 am   BACKBONE|DICT|INTERRES
    51   24   94 1    
    52   25   26 2    
    53   25   27 1    
    54   27   28 1    
    55   27   29 1    
    56   27   95 1    
    57   28   96 1    
    58   28   97 1    
    59   28   98 1    
    60   29   30 am   BACKBONE|DICT|INTERRES
    61   29   99 1    
    62   30   31 2    
    63   30   32 1    
    64   32   33 1    
    65   32   34 1    
    66   32  100 1    
    67   33  101 1    
    68   33  102 1    
    69   33  103 1    
    70   34   35 am   BACKBONE|DICT|INTERRES
    71   34  104 1    
    72   35   36 2    
    73   37   38 2    
    74   37   39 am   BACKBONE|DICT|INTERRES
    75   39   40 1    
    76   39  105 1    
    77   40   41 1    
    78   40   42 1    
    79   40  106 1    
    80   41  107 1    
    81   41  108 1    
    82   41  109 1    
    83   42   43 2    
    84   42   44 am   BACKBONE|DICT|INTERRES
    85   44   45 1    
    86   44  110 1    
    87   45   46 1    
    88   45   47 1    
    89   45  111 1    
    90   46  112 1    
    91   46  113 1    
    92   46  114 1    
    93   47   48 2    
    94   47   49 am   BACKBONE|DICT|INTERRES
    95   49   50 1    
    96   49  115 1    
    97   50   51 1    
    98   50   52 1    
    99   50  116 1    
   100   51  117 1    
   101   51  118 1    
   102   51  119 1    
   103   52   53 2    
   104   52   54 am   BACKBONE|DICT|INTERRES
   105   54   55 1    
   106   54  120 1    
   107   55   56 1    
   108   55   57 1    
   109   55  121 1    
   110   56  122 1    
   111   56  123 1    
   112   56  124 1    
   113   57   58 2    
   114   57   59 am   BACKBONE|DICT|INTERRES
   115   59   60 1    
   116   59  125 1    
   117   60   61 1    
   118   60   62 1    
   119   60  126 1    
   120   61  127 1    
   121   61  128 1    
   122   61  129 1    
   123   62   63 2    
   124   62   64 am   BACKBONE|DICT|INTERRES
   125   64   65 1    
   126   64  130 1    
   127   65   66 1    
   128   65   69 1    
   129   65  131 1    
   130   66   67 am   BACKBONE|DICT|INTERRES
   131   66   68 2    
   132   67  132 1    
   133   67  133 1    
   134   69   70 1    
   135   69  134 1    
   136   69  135 1    
   137   70   71 1    
   138   71  136 1    
   139   71  137 1    
@<TRIPOS>SUBSTRUCTURE
     1 UNK         1 GROUP             0       ****    0 ROOT    
