@<TRIPOS>MOLECULE
3R137
137   139    1
SMALL
USER_CHARGES


@<TRIPOS>ATOM
      1 CA         30.3807    0.9107   -1.3939 C.3       0 UNK        -0.2020 
      2 C          29.4452   -0.2719   -1.1919 C.2       0 UNK         0.4855 
      3 O          28.7938   -0.3681   -0.1515 O.2       0 UNK        -0.5197 
      4 N          29.3739   -1.1686   -2.1842 N.am      1 UNK        -0.4892 
      5 CA         28.5567   -2.3852   -2.2166 C.3       1 UNK         0.0835 
      6 C6         28.9191   -3.3902   -1.0851 C.3       12 UNK        -0.0855 
      7 S7         28.4999   -5.1154   -1.5072 S.3       12 UNK        -0.2931 
      8 C8         30.1006   -5.7451   -2.1137 C.3       12 UNK         0.0378 
      9 C9         30.5034   -5.0610   -3.4109 C.ar      12 UNK        -0.0802 
     10 C10        31.4738   -4.0516   -3.4106 C.ar      12 UNK        -0.0944 
     11 C11        31.7967   -3.3845   -4.5954 C.ar      12 UNK        -0.0787 
     12 C12        31.1415   -3.7358   -5.7762 C.ar      12 UNK        -0.0862 
     13 C13        30.1624   -4.7300   -5.7930 C.ar      12 UNK        -0.0733 
     14 C14        29.8682   -5.4114   -4.6071 C.ar      12 UNK        -0.0832 
     15 C15        29.4329   -5.0289   -7.1012 C.3       12 UNK         0.0240 
     16 S16        27.6332   -5.2981   -6.9367 S.3       12 UNK        -0.2522 
     17 C17        27.0789   -3.8831   -5.9272 C.3       12 UNK        -0.0967 
     18 CA         26.6770   -2.6329   -6.7554 C.3       5 UNK         0.0660 
     19 N          25.3804   -2.0933   -6.3315 N.am      5 UNK        -0.4015 
     20 C          24.6616   -1.2112   -7.0391 C.2       4 UNK         0.4946 
     21 O          24.9950   -0.7826   -8.1453 O.2       4 UNK        -0.5353 
     22 CA         23.3759   -0.6928   -6.3773 C.3       4 UNK         0.0277 
     23 CB         22.3026   -1.7918   -6.3097 C.3       4 UNK        -0.1981 
     24 N          23.6077   -0.1442   -5.0381 N.am      4 UNK        -0.4209 
     25 C          24.3189    0.9581   -4.7730 C.2       3 UNK         0.4942 
     26 O          24.9051    1.6073   -5.6370 O.2       3 UNK        -0.5208 
     27 CA         24.3987    1.4286   -3.3081 C.3       3 UNK         0.0250 
     28 CB         23.0808    2.0946   -2.8653 C.3       3 UNK        -0.1990 
     29 N          24.8377    0.4000   -2.3533 N.am      3 UNK        -0.4232 
     30 C          24.2134   -0.7316   -1.9964 C.2       2 UNK         0.4993 
     31 O          23.1173   -1.0789   -2.4428 O.2       2 UNK        -0.5286 
     32 CA         24.9560   -1.6332   -0.9881 C.3       2 UNK         0.0209 
     33 CB         24.3568   -3.0546   -0.9246 C.3       2 UNK        -0.1931 
     34 N          26.4099   -1.7231   -1.2000 N.am      2 UNK        -0.4546 
     35 C          27.0449   -2.0868   -2.3241 C.2       1 UNK         0.5154 
     36 O          26.4900   -2.1795   -3.4202 O.2       1 UNK        -0.5181 
     37 C          27.7627   -1.5362   -6.7091 C.2       5 UNK         0.5014 
     38 O          28.6281   -1.4961   -7.5850 O.2       5 UNK        -0.5248 
     39 N          27.6551   -0.6407   -5.7128 N.am      6 UNK        -0.4434 
     40 CA         28.4972    0.5415   -5.5235 C.3       6 UNK         0.0363 
     41 CB         28.0726    1.3055   -4.2579 C.3       6 UNK        -0.1936 
     42 C          28.4920    1.4815   -6.7352 C.2       6 UNK         0.5081 
     43 O          29.5626    1.8995   -7.1731 O.2       6 UNK        -0.5248 
     44 N          27.2960    1.7819   -7.2576 N.am      7 UNK        -0.4718 
     45 CA         27.0979    2.5936   -8.4573 C.3       7 UNK         0.0273 
     46 CB         25.6206    3.0039   -8.5610 C.3       7 UNK        -0.1935 
     47 C          27.5496    1.8746   -9.7367 C.2       7 UNK         0.5018 
     48 O          28.1314    2.5194  -10.6091 O.2       7 UNK        -0.5186 
     49 N          27.2857    0.5619   -9.8238 N.am      8 UNK        -0.4240 
     50 CA         27.6533   -0.2827  -10.9636 C.3       8 UNK         0.0235 
     51 CB         26.9902   -1.6630  -10.8278 C.3       8 UNK        -0.2000 
     52 C          29.1740   -0.4224  -11.1433 C.2       8 UNK         0.4941 
     53 O          29.6665   -0.2609  -12.2607 O.2       8 UNK        -0.5273 
     54 N          29.8883   -0.7100  -10.0470 N.am      9 UNK        -0.4262 
     55 CA         31.3468   -0.8592  -10.0359 C.3       9 UNK         0.0264 
     56 CB         31.7363   -1.7849   -8.8785 C.3       9 UNK        -0.1955 
     57 C          32.1014    0.4739   -9.9053 C.2       9 UNK         0.5031 
     58 O          33.3048    0.5011  -10.1663 O.2       9 UNK        -0.5390 
     59 N          31.4023    1.5316   -9.4702 N.am      10 UNK        -0.4204 
     60 CA         31.9135    2.8628   -9.1235 C.3       10 UNK         0.0237 
     61 CB         32.5726    3.5562  -10.3358 C.3       10 UNK        -0.1985 
     62 C          32.8017    2.8712   -7.8604 C.2       10 UNK         0.4970 
     63 O          33.6008    3.7947   -7.6939 O.2       10 UNK        -0.4914 
     64 N          32.6317    1.8741   -6.9784 N.am      11 UNK        -0.4285 
     65 CA         33.2411    1.8369   -5.6385 C.3       11 UNK         0.1007 
     66 C          32.4649    2.6690   -4.5756 C.2       11 UNK         0.5703 
     67 N          31.2525    3.1367   -4.8546 N.am      11 UNK        -0.7361 
     68 O          32.9812    2.9092   -3.4871 O.2       11 UNK        -0.4986 
     69 C69        33.5464    0.3891   -5.1627 C.3       12 UNK        -0.0947 
     70 S70        32.0741   -0.6567   -4.9120 S.3       12 UNK        -0.2240 
     71 C71        32.8427   -2.2790   -4.6194 C.3       12 UNK         0.0194 
     72 H72        29.8223    1.8449   -1.3420 H         1 UNK         0.0906 
     73 H73        31.1408    0.9250   -0.6134 H         1 UNK         0.0906 
     74 H74        30.8881    0.8729   -2.3578 H         1 UNK         0.0906 
     75 H75        29.9381   -1.0220   -3.0106 H         1 UNK         0.3140 
     76 H76        28.8259   -2.8536   -3.1633 H         1 UNK         0.1085 
     77 H77        29.9887   -3.3429   -0.8760 H         1 UNK         0.0836 
     78 H78        28.4372   -3.1316   -0.1411 H         1 UNK         0.0836 
     79 H79        30.8646   -5.6108   -1.3462 H         1 UNK         0.0731 
     80 H80        30.0198   -6.8205   -2.2792 H         1 UNK         0.0731 
     81 H81        31.9643   -3.7748   -2.4874 H         1 UNK         0.1312 
     82 H82        31.3874   -3.2147   -6.6855 H         1 UNK         0.1406 
     83 H83        29.1106   -6.1835   -4.6033 H         1 UNK         0.1631 
     84 H84        29.8793   -5.9133   -7.5571 H         1 UNK         0.0717 
     85 H85        29.5777   -4.2115   -7.8094 H         1 UNK         0.0717 
     86 H86        27.8199   -3.6483   -5.1643 H         1 UNK         0.0934 
     87 H87        26.2224   -4.2518   -5.3603 H         1 UNK         0.0934 
     88 H88        26.5638   -2.9270   -7.8006 H         1 UNK         0.0739 
     89 H89        25.0686   -2.3491   -5.4043 H         1 UNK         0.3093 
     90 H90        22.9911    0.1152   -7.0035 H         1 UNK         0.0818 
     91 H91        21.3533   -1.3937   -5.9509 H         1 UNK         0.0819 
     92 H92        22.1200   -2.2210   -7.2960 H         1 UNK         0.0819 
     93 H93        22.5932   -2.6072   -5.6461 H         1 UNK         0.0819 
     94 H94        23.1932   -0.6279   -4.2435 H         1 UNK         0.3041 
     95 H95        25.1669    2.2022   -3.2732 H         1 UNK         0.0784 
     96 H96        22.8206    2.9188   -3.5309 H         1 UNK         0.0793 
     97 H97        22.2424    1.3976   -2.8736 H         1 UNK         0.0793 
     98 H98        23.1638    2.5057   -1.8593 H         1 UNK         0.0793 
     99 H99        25.7439    0.5623   -1.9370 H         1 UNK         0.3024 
    100 H100       24.8112   -1.1695   -0.0109 H         1 UNK         0.1171 
    101 H101       24.8673   -3.6679   -0.1819 H         1 UNK         0.0786 
    102 H102       24.4294   -3.5646   -1.8861 H         1 UNK         0.0786 
    103 H103       23.3019   -3.0266   -0.6483 H         1 UNK         0.0786 
    104 H104       26.9925   -1.5375   -0.3906 H         1 UNK         0.2977 
    105 H105       26.9350   -0.8071   -5.0212 H         1 UNK         0.3127 
    106 H106       29.5122    0.1795   -5.3843 H         1 UNK         0.0770 
    107 H107       27.2325    1.9729   -4.4446 H         1 UNK         0.0814 
    108 H108       28.8897    1.9275   -3.8941 H         1 UNK         0.0814 
    109 H109       27.7832    0.6384   -3.4500 H         1 UNK         0.0814 
    110 H110       26.4564    1.4572   -6.7841 H         1 UNK         0.2983 
    111 H111       27.6991    3.5000   -8.3565 H         1 UNK         0.0947 
    112 H112       25.4439    3.6144   -9.4475 H         1 UNK         0.0806 
    113 H113       25.3122    3.5907   -7.6955 H         1 UNK         0.0806 
    114 H114       24.9644    2.1344   -8.6236 H         1 UNK         0.0806 
    115 H115       26.7679    0.1206   -9.0718 H         1 UNK         0.3000 
    116 H116       27.2575    0.1930  -11.8635 H         1 UNK         0.0850 
    117 H117       27.2040   -2.2846  -11.6983 H         1 UNK         0.0810 
    118 H118       25.9063   -1.5774  -10.7484 H         1 UNK         0.0810 
    119 H119       27.3486   -2.2000   -9.9498 H         1 UNK         0.0810 
    120 H120       29.4003   -0.8780   -9.1673 H         1 UNK         0.3040 
    121 H121       31.6663   -1.3290  -10.9687 H         1 UNK         0.0766 
    122 H122       32.8142   -1.9503   -8.8474 H         1 UNK         0.0812 
    123 H123       31.4419   -1.3552   -7.9203 H         1 UNK         0.0812 
    124 H124       31.2598   -2.7596   -8.9805 H         1 UNK         0.0812 
    125 H125       30.4273    1.3840   -9.2404 H         1 UNK         0.3205 
    126 H126       31.0325    3.4509   -8.8624 H         1 UNK         0.0754 
    127 H127       32.7788    4.6054  -10.1208 H         1 UNK         0.0769 
    128 H128       31.9216    3.5285  -11.2097 H         1 UNK         0.0769 
    129 H129       33.5204    3.0906  -10.6066 H         1 UNK         0.0769 
    130 H130       31.9082    1.1925   -7.1559 H         1 UNK         0.2981 
    131 H131       34.2135    2.3269   -5.7147 H         1 UNK         0.0541 
    132 H132       30.8097    2.9183   -5.7374 H         1 UNK         0.3459 
    133 H133       30.7729    3.6975   -4.1698 H         1 UNK         0.3459 
    134 H134       34.1137    0.4096   -4.2305 H         1 UNK         0.0612 
    135 H135       34.1929   -0.0998   -5.8931 H         1 UNK         0.0612 
    136 H136       33.5656   -2.4870   -5.4095 H         1 UNK         0.0624 
    137 H137       33.4006   -2.2485   -3.6823 H         1 UNK         0.0624 
@<TRIPOS>BOND
     1    1    2 1    
     2    1   72 1    
     3    1   73 1    
     4    1   74 1    
     5    2    3 2    
     6    2    4 am   BACKBONE|DICT|INTERRES
     7    4    5 1    
     8    4   75 1    
     9    5    6 1    
    10    5   35 1    
    11    5   76 1    
    12    6    7 1    
    13    6   77 1    
    14    6   78 1    
    15    7    8 1    
    16    8    9 1    
    17    8   79 1    
    18    8   80 1    
    19    9   10 ar   
    20    9   14 ar   
    21   10   11 ar   
    22   10   81 1    
    23   11   12 ar   
    24   11   71 1    
    25   12   13 ar   
    26   12   82 1    
    27   13   14 ar   
    28   13   15 1    
    29   14   83 1    
    30   15   16 1    
    31   15   84 1    
    32   15   85 1    
    33   16   17 1    
    34   17   18 1    
    35   17   86 1    
    36   17   87 1    
    37   18   19 1    
    38   18   37 1    
    39   18   88 1    
    40   19   20 am   BACKBONE|DICT|INTERRES
    41   19   89 1    
    42   20   21 2    
    43   20   22 1    
    44   22   23 1    
    45   22   24 1    
    46   22   90 1    
    47   23   91 1    
    48   23   92 1    
    49   23   93 1    
    50   24   25 am   BACKBONE|DICT|INTERRES
    51   24   94 1    
    52   25   26 2    
    53   25   27 1    
    54   27   28 1    
    55   27   29 1    
    56   27   95 1    
    57   28   96 1    
    58   28   97 1    
    59   28   98 1    
    60   29   30 am   BACKBONE|DICT|INTERRES
    61   29   99 1    
    62   30   31 2    
    63   30   32 1    
    64   32   33 1    
    65   32   34 1    
    66   32  100 1    
    67   33  101 1    
    68   33  102 1    
    69   33  103 1    
    70   34   35 am   BACKBONE|DICT|INTERRES
    71   34  104 1    
    72   35   36 2    
    73   37   38 2    
    74   37   39 am   BACKBONE|DICT|INTERRES
    75   39   40 1    
    76   39  105 1    
    77   40   41 1    
    78   40   42 1    
    79   40  106 1    
    80   41  107 1    
    81   41  108 1    
    82   41  109 1    
    83   42   43 2    
    84   42   44 am   BACKBONE|DICT|INTERRES
    85   44   45 1    
    86   44  110 1    
    87   45   46 1    
    88   45   47 1    
    89   45  111 1    
    90   46  112 1    
    91   46  113 1    
    92   46  114 1    
    93   47   48 2    
    94   47   49 am   BACKBONE|DICT|INTERRES
    95   49   50 1    
    96   49  115 1    
    97   50   51 1    
    98   50   52 1    
    99   50  116 1    
   100   51  117 1    
   101   51  118 1    
   102   51  119 1    
   103   52   53 2    
   104   52   54 am   BACKBONE|DICT|INTERRES
   105   54   55 1    
   106   54  120 1    
   107   55   56 1    
   108   55   57 1    
   109   55  121 1    
   110   56  122 1    
   111   56  123 1    
   112   56  124 1    
   113   57   58 2    
   114   57   59 am   BACKBONE|DICT|INTERRES
   115   59   60 1    
   116   59  125 1    
   117   60   61 1    
   118   60   62 1    
   119   60  126 1    
   120   61  127 1    
   121   61  128 1    
   122   61  129 1    
   123   62   63 2    
   124   62   64 am   BACKBONE|DICT|INTERRES
   125   64   65 1    
   126   64  130 1    
   127   65   66 1    
   128   65   69 1    
   129   65  131 1    
   130   66   67 am   BACKBONE|DICT|INTERRES
   131   66   68 2    
   132   67  132 1    
   133   67  133 1    
   134   69   70 1    
   135   69  134 1    
   136   69  135 1    
   137   70   71 1    
   138   71  136 1    
   139   71  137 1    
@<TRIPOS>SUBSTRUCTURE
     1 UNK         1 GROUP             0       ****    0 ROOT    
