@<TRIPOS>MOLECULE
3R137
137   139    1
SMALL
USER_CHARGES


@<TRIPOS>ATOM
      1 CA         26.1742   -6.3746   -4.0730 C.3       0 UNK        -0.2020 
      2 C          26.0360   -5.3099   -2.9959 C.2       0 UNK         0.4855 
      3 O          24.9178   -5.0077   -2.5770 O.2       0 UNK        -0.5197 
      4 N          27.1631   -4.7388   -2.5484 N.am      1 UNK        -0.4892 
      5 CA         27.2438   -3.6653   -1.5500 C.3       1 UNK         0.0835 
      6 C6         28.7003   -3.2075   -1.3054 C.3       12 UNK        -0.0855 
      7 S7         29.8991   -4.5202   -0.9090 S.3       12 UNK        -0.2931 
      8 C8         31.3729   -3.5119   -0.5137 C.3       12 UNK         0.0378 
      9 C9         31.6610   -2.4580   -1.5793 C.ar      12 UNK        -0.0802 
     10 C10        32.3299   -2.8051   -2.7554 C.ar      12 UNK        -0.0944 
     11 C11        32.5611   -1.8485   -3.7490 C.ar      12 UNK        -0.0787 
     12 C12        32.1124   -0.5363   -3.5641 C.ar      12 UNK        -0.0862 
     13 C13        31.4314   -0.1766   -2.3947 C.ar      12 UNK        -0.0733 
     14 C14        31.2283   -1.1391   -1.4006 C.ar      12 UNK        -0.0832 
     15 C15        30.9375    1.2508   -2.1709 C.3       12 UNK         0.0240 
     16 S16        30.0102    1.9550   -3.5761 S.3       12 UNK        -0.2522 
     17 C17        28.5079    0.9201   -3.6583 C.3       12 UNK        -0.0967 
     18 CA         27.9444    0.8359   -5.1027 C.3       5 UNK         0.0660 
     19 N          27.1888   -0.4004   -5.3219 N.am      5 UNK        -0.4015 
     20 C          26.7426   -0.8404   -6.5067 C.2       4 UNK         0.4946 
     21 O          26.8266   -0.2003   -7.5532 O.2       4 UNK        -0.5353 
     22 CA         26.0555   -2.2111   -6.5207 C.3       4 UNK         0.0277 
     23 CB         27.0744   -3.3432   -6.3038 C.3       4 UNK        -0.1981 
     24 N          25.0093   -2.2770   -5.5023 N.am      4 UNK        -0.4209 
     25 C          23.7493   -1.8598   -5.6864 C.2       3 UNK         0.4942 
     26 O          23.3163   -1.4394   -6.7597 O.2       3 UNK        -0.5208 
     27 CA         22.8042   -1.9163   -4.4717 C.3       3 UNK         0.0250 
     28 CB         22.0323   -3.2456   -4.4560 C.3       3 UNK        -0.1990 
     29 N          23.4823   -1.7388   -3.1851 N.am      3 UNK        -0.4232 
     30 C          24.0896   -0.6096   -2.7935 C.2       2 UNK         0.4993 
     31 O          24.1517    0.4113   -3.4770 O.2       2 UNK        -0.5286 
     32 CA         24.8171   -0.6498   -1.4378 C.3       2 UNK         0.0209 
     33 CB         23.8329   -0.3844   -0.2874 C.3       2 UNK        -0.1931 
     34 N          25.5555   -1.8948   -1.1803 N.am      2 UNK        -0.4546 
     35 C          26.4575   -2.4277   -2.0159 C.2       1 UNK         0.5154 
     36 O          26.7159   -1.9614   -3.1267 O.2       1 UNK        -0.5181 
     37 C          27.1597    2.1037   -5.5099 C.2       5 UNK         0.5014 
     38 O          27.7645    3.0452   -6.0251 O.2       5 UNK        -0.5248 
     39 N          25.8287    2.0994   -5.3257 N.am      6 UNK        -0.4434 
     40 CA         24.9377    3.1648   -5.7972 C.3       6 UNK         0.0363 
     41 CB         23.5465    2.9970   -5.1665 C.3       6 UNK        -0.1936 
     42 C          24.8174    3.2401   -7.3314 C.2       6 UNK         0.5081 
     43 O          24.5297    4.3197   -7.8496 O.2       6 UNK        -0.5248 
     44 N          25.0262    2.1154   -8.0315 N.am      7 UNK        -0.4718 
     45 CA         25.0398    2.0538   -9.4935 C.3       7 UNK         0.0273 
     46 CB         24.6079    0.6567   -9.9709 C.3       7 UNK        -0.1935 
     47 C          26.4232    2.4336  -10.0413 C.2       7 UNK         0.5018 
     48 O          26.5033    3.2817  -10.9313 O.2       7 UNK        -0.5186 
     49 N          27.4831    1.8301   -9.4873 N.am      8 UNK        -0.4240 
     50 CA         28.8753    2.1312   -9.8092 C.3       8 UNK         0.0235 
     51 CB         29.2784    1.4893  -11.1519 C.3       8 UNK        -0.2000 
     52 C          29.7731    1.6303   -8.6744 C.2       8 UNK         0.4941 
     53 O          29.7673    0.4347   -8.3810 O.2       8 UNK        -0.5273 
     54 N          30.5611    2.5391   -8.0849 N.am      9 UNK        -0.4262 
     55 CA         31.5332    2.2274   -7.0304 C.3       9 UNK         0.0264 
     56 CB         31.9358    3.5248   -6.3117 C.3       9 UNK        -0.1955 
     57 C          32.7793    1.4827   -7.5423 C.2       9 UNK         0.5031 
     58 O          33.4728    0.8483   -6.7470 O.2       9 UNK        -0.5390 
     59 N          33.0484    1.5676   -8.8515 N.am      10 UNK        -0.4204 
     60 CA         34.0980    0.8241   -9.5422 C.3       10 UNK         0.0237 
     61 CB         34.4880    1.5825  -10.8248 C.3       10 UNK        -0.1985 
     62 C          33.6116   -0.6057   -9.8316 C.2       10 UNK         0.4970 
     63 O          33.1262   -0.8760  -10.9317 O.2       10 UNK        -0.4914 
     64 N          33.7226   -1.4826   -8.8265 N.am      11 UNK        -0.4285 
     65 CA         33.3201   -2.8981   -8.8983 C.3       11 UNK         0.1007 
     66 C          34.1545   -3.7707   -9.8833 C.2       11 UNK         0.5703 
     67 N          35.3415   -3.3504  -10.3062 N.am      11 UNK        -0.7361 
     68 O          33.7125   -4.8495  -10.2718 O.2       11 UNK        -0.4986 
     69 C69        33.2831   -3.5635   -7.4976 C.3       12 UNK        -0.0947 
     70 S70        32.1445   -2.7489   -6.3268 S.3       12 UNK        -0.2240 
     71 C71        33.3006   -2.2399   -5.0180 C.3       12 UNK         0.0194 
     72 H72        27.1980   -6.4550   -4.4382 H         1 UNK         0.0906 
     73 H73        25.8746   -7.3457   -3.6800 H         1 UNK         0.0906 
     74 H74        25.5306   -6.1370   -4.9195 H         1 UNK         0.0906 
     75 H75        28.0537   -5.0330   -2.9234 H         1 UNK         0.3140 
     76 H76        26.8197   -4.0392   -0.6161 H         1 UNK         0.1085 
     77 H77        28.7278   -2.4712   -0.4993 H         1 UNK         0.0836 
     78 H78        29.0760   -2.7037   -2.1992 H         1 UNK         0.0836 
     79 H79        32.2354   -4.1708   -0.4037 H         1 UNK         0.0731 
     80 H80        31.2284   -3.0375    0.4583 H         1 UNK         0.0731 
     81 H81        32.6602   -3.8246   -2.9018 H         1 UNK         0.1312 
     82 H82        32.2883    0.2023   -4.3348 H         1 UNK         0.1406 
     83 H83        30.7114   -0.8675   -0.4901 H         1 UNK         0.1631 
     84 H84        31.8021    1.8864   -1.9761 H         1 UNK         0.0717 
     85 H85        30.3076    1.3100   -1.2819 H         1 UNK         0.0717 
     86 H86        28.7763   -0.0780   -3.3084 H         1 UNK         0.0934 
     87 H87        27.7610    1.2933   -2.9550 H         1 UNK         0.0934 
     88 H88        28.7932    0.7671   -5.7859 H         1 UNK         0.0739 
     89 H89        27.0414   -0.9898   -4.5016 H         1 UNK         0.3093 
     90 H90        25.6093   -2.3510   -7.5080 H         1 UNK         0.0818 
     91 H91        27.5446   -3.2933   -5.3212 H         1 UNK         0.0819 
     92 H92        26.6028   -4.3207   -6.4004 H         1 UNK         0.0819 
     93 H93        27.8718   -3.2947   -7.0469 H         1 UNK         0.0819 
     94 H94        25.3033   -2.5323   -4.5672 H         1 UNK         0.3041 
     95 H95        22.0840   -1.1027   -4.5823 H         1 UNK         0.0784 
     96 H96        21.4991   -3.3991   -5.3954 H         1 UNK         0.0793 
     97 H97        22.6995   -4.0976   -4.3160 H         1 UNK         0.0793 
     98 H98        21.2906   -3.2648   -3.6573 H         1 UNK         0.0793 
     99 H99        23.5266   -2.5443   -2.5757 H         1 UNK         0.3024 
    100 H100       25.5500    0.1601   -1.4507 H         1 UNK         0.1171 
    101 H101       24.3529   -0.2846    0.6655 H         1 UNK         0.0786 
    102 H102       23.2821    0.5432   -0.4512 H         1 UNK         0.0786 
    103 H103       23.0997   -1.1858   -0.1886 H         1 UNK         0.0786 
    104 H104       25.3923   -2.3400   -0.2883 H         1 UNK         0.2977 
    105 H105       25.3877    1.3174   -4.8500 H         1 UNK         0.3127 
    106 H106       25.3482    4.1181   -5.4573 H         1 UNK         0.0770 
    107 H107       23.0897    2.0469   -5.4471 H         1 UNK         0.0814 
    108 H108       22.8718    3.7915   -5.4883 H         1 UNK         0.0814 
    109 H109       23.5966    3.0378   -4.0784 H         1 UNK         0.0814 
    110 H110       25.3290    1.2801   -7.5441 H         1 UNK         0.2983 
    111 H111       24.3165    2.7717   -9.8874 H         1 UNK         0.0947 
    112 H112       24.5562    0.6194  -11.0597 H         1 UNK         0.0806 
    113 H113       23.6203    0.3964   -9.5896 H         1 UNK         0.0806 
    114 H114       25.3014   -0.1220   -9.6541 H         1 UNK         0.0806 
    115 H115       27.3377    1.1276   -8.7609 H         1 UNK         0.3000 
    116 H116       28.9848    3.2149   -9.8922 H         1 UNK         0.0850 
    117 H117       30.3302    1.6735  -11.3746 H         1 UNK         0.0810 
    118 H118       28.6978    1.8939  -11.9809 H         1 UNK         0.0810 
    119 H119       29.1329    0.4083  -11.1379 H         1 UNK         0.0810 
    120 H120       30.4932    3.5072   -8.3662 H         1 UNK         0.3040 
    121 H121       31.0486    1.5705   -6.3062 H         1 UNK         0.0766 
    122 H122       31.0669    4.0217   -5.8790 H         1 UNK         0.0812 
    123 H123       32.4283    4.2272   -6.9851 H         1 UNK         0.0812 
    124 H124       32.6262    3.3165   -5.4929 H         1 UNK         0.0812 
    125 H125       32.4116    2.0935   -9.4307 H         1 UNK         0.3205 
    126 H126       34.9839    0.7657   -8.9057 H         1 UNK         0.0754 
    127 H127       35.2611    1.0443  -11.3750 H         1 UNK         0.0769 
    128 H128       34.8850    2.5713  -10.5939 H         1 UNK         0.0769 
    129 H129       33.6393    1.7122  -11.4979 H         1 UNK         0.0769 
    130 H130       34.0610   -1.1554   -7.9320 H         1 UNK         0.2981 
    131 H131       32.3002   -2.9095   -9.2877 H         1 UNK         0.0541 
    132 H132       35.7159   -2.4704   -9.9910 H         1 UNK         0.3459 
    133 H133       35.8685   -3.9240  -10.9457 H         1 UNK         0.3459 
    134 H134       32.9568   -4.6020   -7.5794 H         1 UNK         0.0612 
    135 H135       34.2885   -3.5988   -7.0746 H         1 UNK         0.0612 
    136 H136       33.9120   -1.4097   -5.3729 H         1 UNK         0.0624 
    137 H137       33.9885   -3.0583   -4.8000 H         1 UNK         0.0624 
@<TRIPOS>BOND
     1    1    2 1    
     2    1   72 1    
     3    1   73 1    
     4    1   74 1    
     5    2    3 2    
     6    2    4 am   BACKBONE|DICT|INTERRES
     7    4    5 1    
     8    4   75 1    
     9    5    6 1    
    10    5   35 1    
    11    5   76 1    
    12    6    7 1    
    13    6   77 1    
    14    6   78 1    
    15    7    8 1    
    16    8    9 1    
    17    8   79 1    
    18    8   80 1    
    19    9   10 ar   
    20    9   14 ar   
    21   10   11 ar   
    22   10   81 1    
    23   11   12 ar   
    24   11   71 1    
    25   12   13 ar   
    26   12   82 1    
    27   13   14 ar   
    28   13   15 1    
    29   14   83 1    
    30   15   16 1    
    31   15   84 1    
    32   15   85 1    
    33   16   17 1    
    34   17   18 1    
    35   17   86 1    
    36   17   87 1    
    37   18   19 1    
    38   18   37 1    
    39   18   88 1    
    40   19   20 am   BACKBONE|DICT|INTERRES
    41   19   89 1    
    42   20   21 2    
    43   20   22 1    
    44   22   23 1    
    45   22   24 1    
    46   22   90 1    
    47   23   91 1    
    48   23   92 1    
    49   23   93 1    
    50   24   25 am   BACKBONE|DICT|INTERRES
    51   24   94 1    
    52   25   26 2    
    53   25   27 1    
    54   27   28 1    
    55   27   29 1    
    56   27   95 1    
    57   28   96 1    
    58   28   97 1    
    59   28   98 1    
    60   29   30 am   BACKBONE|DICT|INTERRES
    61   29   99 1    
    62   30   31 2    
    63   30   32 1    
    64   32   33 1    
    65   32   34 1    
    66   32  100 1    
    67   33  101 1    
    68   33  102 1    
    69   33  103 1    
    70   34   35 am   BACKBONE|DICT|INTERRES
    71   34  104 1    
    72   35   36 2    
    73   37   38 2    
    74   37   39 am   BACKBONE|DICT|INTERRES
    75   39   40 1    
    76   39  105 1    
    77   40   41 1    
    78   40   42 1    
    79   40  106 1    
    80   41  107 1    
    81   41  108 1    
    82   41  109 1    
    83   42   43 2    
    84   42   44 am   BACKBONE|DICT|INTERRES
    85   44   45 1    
    86   44  110 1    
    87   45   46 1    
    88   45   47 1    
    89   45  111 1    
    90   46  112 1    
    91   46  113 1    
    92   46  114 1    
    93   47   48 2    
    94   47   49 am   BACKBONE|DICT|INTERRES
    95   49   50 1    
    96   49  115 1    
    97   50   51 1    
    98   50   52 1    
    99   50  116 1    
   100   51  117 1    
   101   51  118 1    
   102   51  119 1    
   103   52   53 2    
   104   52   54 am   BACKBONE|DICT|INTERRES
   105   54   55 1    
   106   54  120 1    
   107   55   56 1    
   108   55   57 1    
   109   55  121 1    
   110   56  122 1    
   111   56  123 1    
   112   56  124 1    
   113   57   58 2    
   114   57   59 am   BACKBONE|DICT|INTERRES
   115   59   60 1    
   116   59  125 1    
   117   60   61 1    
   118   60   62 1    
   119   60  126 1    
   120   61  127 1    
   121   61  128 1    
   122   61  129 1    
   123   62   63 2    
   124   62   64 am   BACKBONE|DICT|INTERRES
   125   64   65 1    
   126   64  130 1    
   127   65   66 1    
   128   65   69 1    
   129   65  131 1    
   130   66   67 am   BACKBONE|DICT|INTERRES
   131   66   68 2    
   132   67  132 1    
   133   67  133 1    
   134   69   70 1    
   135   69  134 1    
   136   69  135 1    
   137   70   71 1    
   138   71  136 1    
   139   71  137 1    
@<TRIPOS>SUBSTRUCTURE
     1 UNK         1 GROUP             0       ****    0 ROOT    
