@<TRIPOS>MOLECULE
3R137
137   139    1
SMALL
USER_CHARGES


@<TRIPOS>ATOM
      1 CA         23.4411   -5.5160   -2.9653 C.3       0 UNK        -0.2020 
      2 C          24.7629   -4.7690   -3.0544 C.2       0 UNK         0.4855 
      3 O          25.0490   -4.1571   -4.0830 O.2       0 UNK        -0.5197 
      4 N          25.5625   -4.8039   -1.9787 N.am      1 UNK        -0.4892 
      5 CA         26.8881   -4.1785   -1.8612 C.3       1 UNK         0.0835 
      6 C6         27.9514   -4.8843   -2.7551 C.3       12 UNK        -0.0855 
      7 S7         29.5520   -5.0941   -1.9012 S.3       12 UNK        -0.2931 
      8 C8         30.7261   -5.1068   -3.2967 C.3       12 UNK         0.0378 
      9 C9         31.4727   -3.7862   -3.4265 C.ar      12 UNK        -0.0802 
     10 C10        32.8662   -3.7425   -3.3085 C.ar      12 UNK        -0.0944 
     11 C11        33.5536   -2.5305   -3.4369 C.ar      12 UNK        -0.0787 
     12 C12        32.8360   -1.3534   -3.6707 C.ar      12 UNK        -0.0862 
     13 C13        31.4485   -1.3903   -3.8161 C.ar      12 UNK        -0.0733 
     14 C14        30.7740   -2.6067   -3.6913 C.ar      12 UNK        -0.0832 
     15 C15        30.6708   -0.1337   -4.1580 C.3       12 UNK         0.0240 
     16 S16        29.6477    0.4172   -2.7530 S.3       12 UNK        -0.2522 
     17 C17        28.5785    1.7263   -3.4519 C.3       12 UNK        -0.0967 
     18 CA         28.1494    1.5387   -4.9286 C.3       5 UNK         0.0660 
     19 N          27.4933    0.2497   -5.1853 N.am      5 UNK        -0.4015 
     20 C          27.2519   -0.2303   -6.4143 C.2       4 UNK         0.4946 
     21 O          27.5848    0.3483   -7.4460 O.2       4 UNK        -0.5353 
     22 CA         26.4673   -1.5466   -6.5263 C.3       4 UNK         0.0277 
     23 CB         27.4047   -2.7549   -6.3787 C.3       4 UNK        -0.1981 
     24 N          25.3709   -1.6229   -5.5584 N.am      4 UNK        -0.4209 
     25 C          24.3206   -0.7867   -5.5535 C.2       3 UNK         0.4942 
     26 O          24.1221    0.0657   -6.4185 O.2       3 UNK        -0.5208 
     27 CA         23.3673   -0.8618   -4.3503 C.3       3 UNK         0.0250 
     28 CB         22.3124   -1.9619   -4.5454 C.3       3 UNK        -0.1990 
     29 N          24.0844   -1.0576   -3.0873 N.am      3 UNK        -0.4232 
     30 C          24.9190   -0.1553   -2.5486 C.2       2 UNK         0.4993 
     31 O          25.1272    0.9560   -3.0354 O.2       2 UNK        -0.5286 
     32 CA         25.6787   -0.5682   -1.2761 C.3       2 UNK         0.0209 
     33 CB         24.8991   -0.1434   -0.0219 C.3       2 UNK        -0.1931 
     34 N          25.9703   -2.0042   -1.2105 N.am      2 UNK        -0.4546 
     35 C          26.7956   -2.6455   -2.0516 C.2       1 UNK         0.5154 
     36 O          27.3831   -2.0793   -2.9742 O.2       1 UNK        -0.5181 
     37 C          27.2930    2.7242   -5.4125 C.2       5 UNK         0.5014 
     38 O          27.8328    3.6300   -6.0484 O.2       5 UNK        -0.5248 
     39 N          25.9766    2.6806   -5.1574 N.am      6 UNK        -0.4434 
     40 CA         25.0006    3.6572   -5.6541 C.3       6 UNK         0.0363 
     41 CB         23.6256    3.3764   -5.0282 C.3       6 UNK        -0.1936 
     42 C          24.9045    3.6900   -7.1916 C.2       6 UNK         0.5081 
     43 O          24.7484    4.7676   -7.7659 O.2       6 UNK        -0.5248 
     44 N          25.0349    2.5197   -7.8304 N.am      7 UNK        -0.4718 
     45 CA         25.0967    2.3555   -9.2859 C.3       7 UNK         0.0273 
     46 CB         24.7273    0.9030   -9.6324 C.3       7 UNK        -0.1935 
     47 C          26.4642    2.7201   -9.9006 C.2       7 UNK         0.5018 
     48 O          26.5655    2.7564  -11.1277 O.2       7 UNK        -0.5186 
     49 N          27.4829    2.9594   -9.0592 N.am      8 UNK        -0.4240 
     50 CA         28.8928    3.1953   -9.3986 C.3       8 UNK         0.0235 
     51 CB         29.0663    4.5202  -10.1719 C.3       8 UNK        -0.2000 
     52 C          29.5504    1.9876  -10.0997 C.2       8 UNK         0.4941 
     53 O          30.3511    2.1654  -11.0206 O.2       8 UNK        -0.5273 
     54 N          29.1936    0.7818   -9.6455 N.am      9 UNK        -0.4262 
     55 CA         29.7180   -0.5054  -10.0920 C.3       9 UNK         0.0264 
     56 CB         28.5214   -1.4497  -10.3235 C.3       9 UNK        -0.1955 
     57 C          30.7049   -1.0634   -9.0484 C.2       9 UNK         0.5031 
     58 O          31.1115   -0.3456   -8.1285 O.2       9 UNK        -0.5390 
     59 N          31.0873   -2.3386   -9.2206 N.am      10 UNK        -0.4204 
     60 CA         32.0443   -3.0909   -8.3996 C.3       10 UNK         0.0237 
     61 CB         31.4704   -3.3538   -6.9904 C.3       10 UNK        -0.1985 
     62 C          33.4280   -2.4150   -8.4145 C.2       10 UNK         0.4970 
     63 O          34.0242   -2.3292   -9.4899 O.2       10 UNK        -0.4914 
     64 N          33.9078   -1.9367   -7.2587 N.am      11 UNK        -0.4285 
     65 CA         35.1501   -1.1532   -7.1512 C.3       11 UNK         0.1007 
     66 C          35.0506    0.2891   -7.7344 C.2       11 UNK         0.5703 
     67 N          33.8701    0.8092   -8.0546 N.am      11 UNK        -0.7361 
     68 O          36.0727    0.9497   -7.9047 O.2       11 UNK        -0.4986 
     69 C69        35.7217   -1.1175   -5.7079 C.3       12 UNK        -0.0947 
     70 S70        35.8853   -2.7606   -4.9270 S.3       12 UNK        -0.2240 
     71 C71        35.0703   -2.4973   -3.3181 C.3       12 UNK         0.0194 
     72 H72        23.3318   -6.1846   -3.8187 H         1 UNK         0.0906 
     73 H73        23.3708   -6.1144   -2.0571 H         1 UNK         0.0906 
     74 H74        22.6089   -4.8131   -2.9748 H         1 UNK         0.0906 
     75 H75        25.2570   -5.3161   -1.1618 H         1 UNK         0.3140 
     76 H76        27.1750   -4.3260   -0.8185 H         1 UNK         0.1085 
     77 H77        28.0801   -4.3845   -3.7151 H         1 UNK         0.0836 
     78 H78        27.6165   -5.8911   -3.0100 H         1 UNK         0.0836 
     79 H79        30.2104   -5.3286   -4.2321 H         1 UNK         0.0731 
     80 H80        31.4298   -5.9258   -3.1399 H         1 UNK         0.0731 
     81 H81        33.4200   -4.6524   -3.1212 H         1 UNK         0.1312 
     82 H82        33.3536   -0.4086   -3.7537 H         1 UNK         0.1406 
     83 H83        29.7000   -2.6309   -3.7992 H         1 UNK         0.1631 
     84 H84        30.0587   -0.3703   -5.0264 H         1 UNK         0.0717 
     85 H85        31.3388    0.6749   -4.4587 H         1 UNK         0.0717 
     86 H86        27.7002    1.8076   -2.8093 H         1 UNK         0.0934 
     87 H87        29.1137    2.6715   -3.3402 H         1 UNK         0.0934 
     88 H88        29.0506    1.5703   -5.5439 H         1 UNK         0.0739 
     89 H89        27.2301   -0.3042   -4.3786 H         1 UNK         0.3093 
     90 H90        26.0251   -1.5847   -7.5239 H         1 UNK         0.0818 
     91 H91        26.8597   -3.6952   -6.4633 H         1 UNK         0.0819 
     92 H92        28.1719   -2.7498   -7.1538 H         1 UNK         0.0819 
     93 H93        27.9194   -2.7512   -5.4199 H         1 UNK         0.0819 
     94 H94        25.4349   -2.3416   -4.8423 H         1 UNK         0.3041 
     95 H95        22.8442    0.0947   -4.2847 H         1 UNK         0.0784 
     96 H96        21.7127   -1.7655   -5.4352 H         1 UNK         0.0793 
     97 H97        22.7652   -2.9443   -4.6752 H         1 UNK         0.0793 
     98 H98        21.6273   -2.0133   -3.6991 H         1 UNK         0.0793 
     99 H99        23.9940   -1.9572   -2.6396 H         1 UNK         0.3024 
    100 H100       26.6327   -0.0354   -1.2848 H         1 UNK         0.1171 
    101 H101       25.4671   -0.3462    0.8862 H         1 UNK         0.0786 
    102 H102       24.6899    0.9274   -0.0379 H         1 UNK         0.0786 
    103 H103       23.9423   -0.6612    0.0559 H         1 UNK         0.0786 
    104 H104       25.4971   -2.5362   -0.4940 H         1 UNK         0.2977 
    105 H105       25.6177    1.9329   -4.5660 H         1 UNK         0.3127 
    106 H106       25.3287    4.6452   -5.3243 H         1 UNK         0.0770 
    107 H107       23.2411    2.3992   -5.3209 H         1 UNK         0.0814 
    108 H108       22.8945    4.1220   -5.3432 H         1 UNK         0.0814 
    109 H109       23.6713    3.4050   -3.9393 H         1 UNK         0.0814 
    110 H110       25.0832    1.6694   -7.2768 H         1 UNK         0.2983 
    111 H111       24.3536    3.0145   -9.7399 H         1 UNK         0.0947 
    112 H112       25.4506    0.1970   -9.2233 H         1 UNK         0.0806 
    113 H113       24.6989    0.7512  -10.7121 H         1 UNK         0.0806 
    114 H114       23.7443    0.6386   -9.2421 H         1 UNK         0.0806 
    115 H115       27.2885    2.8914   -8.0673 H         1 UNK         0.3000 
    116 H116       29.4130    3.3033   -8.4456 H         1 UNK         0.0850 
    117 H117       28.6041    5.3521   -9.6405 H         1 UNK         0.0810 
    118 H118       28.6254    4.4703  -11.1678 H         1 UNK         0.0810 
    119 H119       30.1222    4.7628  -10.2971 H         1 UNK         0.0810 
    120 H120       28.5754    0.7322   -8.8337 H         1 UNK         0.3040 
    121 H121       30.2593   -0.3860  -11.0325 H         1 UNK         0.0766 
    122 H122       28.8295   -2.3925  -10.7757 H         1 UNK         0.0812 
    123 H123       27.7926   -0.9998  -10.9984 H         1 UNK         0.0812 
    124 H124       28.0053   -1.6822   -9.3918 H         1 UNK         0.0812 
    125 H125       30.7365   -2.8304  -10.0303 H         1 UNK         0.3205 
    126 H126       32.1777   -4.0598   -8.8832 H         1 UNK         0.0754 
    127 H127       32.1650   -3.9320   -6.3795 H         1 UNK         0.0769 
    128 H128       30.5441   -3.9255   -7.0456 H         1 UNK         0.0769 
    129 H129       31.2495   -2.4275   -6.4619 H         1 UNK         0.0769 
    130 H130       33.3623   -2.0358   -6.4154 H         1 UNK         0.2981 
    131 H131       35.8948   -1.6638   -7.7648 H         1 UNK         0.0541 
    132 H132       33.8357    1.7419   -8.4325 H         1 UNK         0.3459 
    133 H133       33.0095    0.2829   -7.9422 H         1 UNK         0.3459 
    134 H134       36.7172   -0.6699   -5.7152 H         1 UNK         0.0612 
    135 H135       35.1169   -0.4658   -5.0799 H         1 UNK         0.0612 
    136 H136       35.4012   -3.2766   -2.6300 H         1 UNK         0.0624 
    137 H137       35.4023   -1.5523   -2.8852 H         1 UNK         0.0624 
@<TRIPOS>BOND
     1    1    2 1    
     2    1   72 1    
     3    1   73 1    
     4    1   74 1    
     5    2    3 2    
     6    2    4 am   BACKBONE|DICT|INTERRES
     7    4    5 1    
     8    4   75 1    
     9    5    6 1    
    10    5   35 1    
    11    5   76 1    
    12    6    7 1    
    13    6   77 1    
    14    6   78 1    
    15    7    8 1    
    16    8    9 1    
    17    8   79 1    
    18    8   80 1    
    19    9   10 ar   
    20    9   14 ar   
    21   10   11 ar   
    22   10   81 1    
    23   11   12 ar   
    24   11   71 1    
    25   12   13 ar   
    26   12   82 1    
    27   13   14 ar   
    28   13   15 1    
    29   14   83 1    
    30   15   16 1    
    31   15   84 1    
    32   15   85 1    
    33   16   17 1    
    34   17   18 1    
    35   17   86 1    
    36   17   87 1    
    37   18   19 1    
    38   18   37 1    
    39   18   88 1    
    40   19   20 am   BACKBONE|DICT|INTERRES
    41   19   89 1    
    42   20   21 2    
    43   20   22 1    
    44   22   23 1    
    45   22   24 1    
    46   22   90 1    
    47   23   91 1    
    48   23   92 1    
    49   23   93 1    
    50   24   25 am   BACKBONE|DICT|INTERRES
    51   24   94 1    
    52   25   26 2    
    53   25   27 1    
    54   27   28 1    
    55   27   29 1    
    56   27   95 1    
    57   28   96 1    
    58   28   97 1    
    59   28   98 1    
    60   29   30 am   BACKBONE|DICT|INTERRES
    61   29   99 1    
    62   30   31 2    
    63   30   32 1    
    64   32   33 1    
    65   32   34 1    
    66   32  100 1    
    67   33  101 1    
    68   33  102 1    
    69   33  103 1    
    70   34   35 am   BACKBONE|DICT|INTERRES
    71   34  104 1    
    72   35   36 2    
    73   37   38 2    
    74   37   39 am   BACKBONE|DICT|INTERRES
    75   39   40 1    
    76   39  105 1    
    77   40   41 1    
    78   40   42 1    
    79   40  106 1    
    80   41  107 1    
    81   41  108 1    
    82   41  109 1    
    83   42   43 2    
    84   42   44 am   BACKBONE|DICT|INTERRES
    85   44   45 1    
    86   44  110 1    
    87   45   46 1    
    88   45   47 1    
    89   45  111 1    
    90   46  112 1    
    91   46  113 1    
    92   46  114 1    
    93   47   48 2    
    94   47   49 am   BACKBONE|DICT|INTERRES
    95   49   50 1    
    96   49  115 1    
    97   50   51 1    
    98   50   52 1    
    99   50  116 1    
   100   51  117 1    
   101   51  118 1    
   102   51  119 1    
   103   52   53 2    
   104   52   54 am   BACKBONE|DICT|INTERRES
   105   54   55 1    
   106   54  120 1    
   107   55   56 1    
   108   55   57 1    
   109   55  121 1    
   110   56  122 1    
   111   56  123 1    
   112   56  124 1    
   113   57   58 2    
   114   57   59 am   BACKBONE|DICT|INTERRES
   115   59   60 1    
   116   59  125 1    
   117   60   61 1    
   118   60   62 1    
   119   60  126 1    
   120   61  127 1    
   121   61  128 1    
   122   61  129 1    
   123   62   63 2    
   124   62   64 am   BACKBONE|DICT|INTERRES
   125   64   65 1    
   126   64  130 1    
   127   65   66 1    
   128   65   69 1    
   129   65  131 1    
   130   66   67 am   BACKBONE|DICT|INTERRES
   131   66   68 2    
   132   67  132 1    
   133   67  133 1    
   134   69   70 1    
   135   69  134 1    
   136   69  135 1    
   137   70   71 1    
   138   71  136 1    
   139   71  137 1    
@<TRIPOS>SUBSTRUCTURE
     1 UNK         1 GROUP             0       ****    0 ROOT    
