@<TRIPOS>MOLECULE
3R137
137   139    1
SMALL
USER_CHARGES


@<TRIPOS>ATOM
      1 CA         25.5503   -4.1719   -8.0569 C.3       0 UNK        -0.2020 
      2 C          26.0941   -4.1508   -6.6369 C.2       0 UNK         0.4855 
      3 O          25.8192   -3.2063   -5.8992 O.2       0 UNK        -0.5197 
      4 N          26.8542   -5.1866   -6.2546 N.am      1 UNK        -0.4892 
      5 CA         27.5562   -5.3573   -4.9745 C.3       1 UNK         0.0835 
      6 C6         28.8604   -4.5108   -4.9006 C.3       12 UNK        -0.0855 
      7 S7         30.1938   -5.3619   -3.9925 S.3       12 UNK        -0.2931 
      8 C8         30.0348   -4.6925   -2.3007 C.3       12 UNK         0.0378 
      9 C9         30.2445   -3.1838   -2.1815 C.ar      12 UNK        -0.0802 
     10 C10        31.2062   -2.5130   -2.9481 C.ar      12 UNK        -0.0944 
     11 C11        31.4008   -1.1374   -2.7973 C.ar      12 UNK        -0.0787 
     12 C12        30.6506   -0.4337   -1.8535 C.ar      12 UNK        -0.0862 
     13 C13        29.6792   -1.0845   -1.0906 C.ar      12 UNK        -0.0733 
     14 C14        29.4830   -2.4589   -1.2575 C.ar      12 UNK        -0.0832 
     15 C15        28.8490   -0.3042   -0.0818 C.3       12 UNK         0.0240 
     16 S16        27.3612    0.4209   -0.8424 S.3       12 UNK        -0.2522 
     17 C17        28.0422    1.8542   -1.7512 C.3       12 UNK        -0.0967 
     18 CA         28.1207    1.6431   -3.2906 C.3       5 UNK         0.0660 
     19 N          26.8016    1.4674   -3.8992 N.am      5 UNK        -0.4015 
     20 C          26.2640    0.2986   -4.2560 C.2       4 UNK         0.4946 
     21 O          26.8031   -0.7969   -4.0745 O.2       4 UNK        -0.5353 
     22 CA         24.8958    0.3784   -4.9487 C.3       4 UNK         0.0277 
     23 CB         25.0381    0.8118   -6.4185 C.3       4 UNK        -0.1981 
     24 N          24.2920   -0.9445   -4.8945 N.am      4 UNK        -0.4209 
     25 C          23.0700   -1.2404   -4.4375 C.2       3 UNK         0.4942 
     26 O          22.1960   -0.4055   -4.2008 O.2       3 UNK        -0.5208 
     27 CA         22.8055   -2.7254   -4.1394 C.3       3 UNK         0.0250 
     28 CB         22.3623   -3.4734   -5.4068 C.3       3 UNK        -0.1990 
     29 N          24.0172   -3.3405   -3.5921 N.am      3 UNK        -0.4232 
     30 C          24.3839   -3.2623   -2.3050 C.2       2 UNK         0.4993 
     31 O          23.6293   -2.8758   -1.4109 O.2       2 UNK        -0.5286 
     32 CA         25.8417   -3.6107   -1.9447 C.3       2 UNK         0.0209 
     33 CB         25.9345   -4.5924   -0.7570 C.3       2 UNK        -0.1931 
     34 N          26.6642   -4.0458   -3.0814 N.am      2 UNK        -0.4546 
     35 C          26.6084   -5.2020   -3.7618 C.2       1 UNK         0.5154 
     36 O          25.8282   -6.1182   -3.4984 O.2       1 UNK        -0.5181 
     37 C          28.7917    2.8223   -4.0210 C.2       5 UNK         0.5014 
     38 O          29.1330    3.8266   -3.3932 O.2       5 UNK        -0.5248 
     39 N          28.8982    2.7133   -5.3513 N.am      6 UNK        -0.4434 
     40 CA         29.3574    3.7581   -6.2648 C.3       6 UNK         0.0363 
     41 CB         28.2538    4.8259   -6.4389 C.3       6 UNK        -0.1936 
     42 C          29.7589    3.1141   -7.6011 C.2       6 UNK         0.5081 
     43 O          29.8885    1.8897   -7.6806 O.2       6 UNK        -0.5248 
     44 N          29.9196    3.9353   -8.6483 N.am      7 UNK        -0.4718 
     45 CA         30.2768    3.5198  -10.0123 C.3       7 UNK         0.0273 
     46 CB         30.3797    4.7603  -10.9129 C.3       7 UNK        -0.1935 
     47 C          29.3253    2.4802  -10.6352 C.2       7 UNK         0.5018 
     48 O          29.7809    1.6428  -11.4127 O.2       7 UNK        -0.5186 
     49 N          28.0469    2.4963  -10.2296 N.am      8 UNK        -0.4240 
     50 CA         27.0363    1.4910  -10.5811 C.3       8 UNK         0.0235 
     51 CB         25.6626    1.9614  -10.0764 C.3       8 UNK        -0.2000 
     52 C          27.3483    0.0727  -10.0578 C.2       8 UNK         0.4941 
     53 O          26.8692   -0.8985  -10.6431 O.2       8 UNK        -0.5273 
     54 N          28.1562   -0.0236   -8.9930 N.am      9 UNK        -0.4262 
     55 CA         28.6921   -1.2683   -8.4382 C.3       9 UNK         0.0264 
     56 CB         28.5310   -1.2279   -6.9107 C.3       9 UNK        -0.1955 
     57 C          30.1664   -1.4892   -8.8310 C.2       9 UNK         0.5031 
     58 O          30.7830   -2.4290   -8.3277 O.2       9 UNK        -0.5390 
     59 N          30.7075   -0.6303   -9.7108 N.am      10 UNK        -0.4204 
     60 CA         32.0956   -0.5845  -10.1813 C.3       10 UNK         0.0237 
     61 CB         32.4462   -1.8452  -11.0015 C.3       10 UNK        -0.1985 
     62 C          33.1167   -0.2830   -9.0654 C.2       10 UNK         0.4970 
     63 O          34.2510   -0.7599   -9.1387 O.2       10 UNK        -0.4914 
     64 N          32.7173    0.5185   -8.0664 N.am      11 UNK        -0.4285 
     65 CA         33.5882    0.9449   -6.9554 C.3       11 UNK         0.1007 
     66 C          34.7025    1.9588   -7.3511 C.2       11 UNK         0.5703 
     67 N          34.6564    2.5804   -8.5240 N.am      11 UNK        -0.7361 
     68 O          35.6314    2.1809   -6.5779 O.2       11 UNK        -0.4986 
     69 C69        32.7779    1.4789   -5.7472 C.3       12 UNK        -0.0947 
     70 S70        31.5502    0.2862   -5.1256 S.3       12 UNK        -0.2240 
     71 C71        32.3961   -0.3940   -3.6699 C.3       12 UNK         0.0194 
     72 H72        26.0139   -4.9525   -8.6597 H         1 UNK         0.0906 
     73 H73        24.4743   -4.3417   -8.0463 H         1 UNK         0.0906 
     74 H74        25.7391   -3.2144   -8.5428 H         1 UNK         0.0906 
     75 H75        26.9884   -5.9471   -6.9070 H         1 UNK         0.3140 
     76 H76        27.8490   -6.4090   -4.9721 H         1 UNK         0.1085 
     77 H77        28.7076   -3.4980   -4.5262 H         1 UNK         0.0836 
     78 H78        29.2523   -4.3725   -5.9096 H         1 UNK         0.0836 
     79 H79        30.7730   -5.1870   -1.6681 H         1 UNK         0.0731 
     80 H80        29.0599   -4.9784   -1.9052 H         1 UNK         0.0731 
     81 H81        31.7982   -3.0563   -3.6715 H         1 UNK         0.1312 
     82 H82        30.8087    0.6287   -1.7337 H         1 UNK         0.1406 
     83 H83        28.7391   -2.9652   -0.6579 H         1 UNK         0.1631 
     84 H84        29.4490    0.4785    0.3848 H         1 UNK         0.0717 
     85 H85        28.5365   -0.9649    0.7283 H         1 UNK         0.0717 
     86 H86        27.4127    2.7165   -1.5239 H         1 UNK         0.0934 
     87 H87        29.0249    2.0981   -1.3454 H         1 UNK         0.0934 
     88 H88        28.7394    0.7662   -3.4923 H         1 UNK         0.0739 
     89 H89        26.3006    2.3216   -4.0991 H         1 UNK         0.3093 
     90 H90        24.2790    1.1010   -4.4099 H         1 UNK         0.0818 
     91 H91        25.5236    1.7848   -6.4995 H         1 UNK         0.0819 
     92 H92        25.6273    0.1004   -6.9973 H         1 UNK         0.0819 
     93 H93        24.0625    0.8967   -6.8972 H         1 UNK         0.0819 
     94 H94        24.9539   -1.7033   -5.0504 H         1 UNK         0.3041 
     95 H95        21.9998   -2.7915   -3.4050 H         1 UNK         0.0784 
     96 H96        21.4212   -3.0707   -5.7834 H         1 UNK         0.0793 
     97 H97        23.0950   -3.3855   -6.2085 H         1 UNK         0.0793 
     98 H98        22.2061   -4.5338   -5.2080 H         1 UNK         0.0793 
     99 H99        24.7225   -3.6170   -4.2676 H         1 UNK         0.3024 
    100 H100       26.2832   -2.6658   -1.6214 H         1 UNK         0.1171 
    101 H101       25.4297   -5.5354   -0.9671 H         1 UNK         0.0786 
    102 H102       26.9696   -4.8146   -0.5001 H         1 UNK         0.0786 
    103 H103       25.4659   -4.1702    0.1328 H         1 UNK         0.0786 
    104 H104       27.2684   -3.3225   -3.4523 H         1 UNK         0.2977 
    105 H105       28.7004    1.8280   -5.8001 H         1 UNK         0.3127 
    106 H106       30.2522    4.2228   -5.8458 H         1 UNK         0.0770 
    107 H107       27.3642    4.4109   -6.9143 H         1 UNK         0.0814 
    108 H108       28.5941    5.6642   -7.0472 H         1 UNK         0.0814 
    109 H109       27.9492    5.2462   -5.4805 H         1 UNK         0.0814 
    110 H110       29.7954    4.9270   -8.5021 H         1 UNK         0.2983 
    111 H111       31.2635    3.0548   -9.9594 H         1 UNK         0.0947 
    112 H112       30.6665    4.4832  -11.9286 H         1 UNK         0.0806 
    113 H113       31.1338    5.4568  -10.5459 H         1 UNK         0.0806 
    114 H114       29.4305    5.2939  -10.9766 H         1 UNK         0.0806 
    115 H115       27.7633    3.2250   -9.5913 H         1 UNK         0.3000 
    116 H116       26.9974    1.4282  -11.6708 H         1 UNK         0.0850 
    117 H117       25.6556    2.1013   -8.9956 H         1 UNK         0.0810 
    118 H118       24.8863    1.2332  -10.3163 H         1 UNK         0.0810 
    119 H119       25.3721    2.9050  -10.5388 H         1 UNK         0.0810 
    120 H120       28.5407    0.8248   -8.5871 H         1 UNK         0.3040 
    121 H121       28.1333   -2.1269   -8.8152 H         1 UNK         0.0766 
    122 H122       27.4806   -1.2477   -6.6297 H         1 UNK         0.0812 
    123 H123       28.9792   -0.3368   -6.4745 H         1 UNK         0.0812 
    124 H124       29.0018   -2.0865   -6.4358 H         1 UNK         0.0812 
    125 H125       30.1086    0.0890  -10.1010 H         1 UNK         0.3205 
    126 H126       32.1487    0.2659  -10.8624 H         1 UNK         0.0754 
    127 H127       33.4196   -1.7418  -11.4826 H         1 UNK         0.0769 
    128 H128       31.7148   -2.0207  -11.7903 H         1 UNK         0.0769 
    129 H129       32.4870   -2.7378  -10.3764 H         1 UNK         0.0769 
    130 H130       31.7614    0.8534   -8.0367 H         1 UNK         0.2981 
    131 H131       34.1163    0.0538   -6.6103 H         1 UNK         0.0541 
    132 H132       33.9052    2.4024   -9.1690 H         1 UNK         0.3459 
    133 H133       35.3881    3.2298   -8.7658 H         1 UNK         0.3459 
    134 H134       32.2464    2.3902   -6.0238 H         1 UNK         0.0612 
    135 H135       33.4430    1.7593   -4.9286 H         1 UNK         0.0612 
    136 H136       32.8585    0.4105   -3.0962 H         1 UNK         0.0624 
    137 H137       33.2014   -1.0556   -3.9926 H         1 UNK         0.0624 
@<TRIPOS>BOND
     1    1    2 1    
     2    1   72 1    
     3    1   73 1    
     4    1   74 1    
     5    2    3 2    
     6    2    4 am   BACKBONE|DICT|INTERRES
     7    4    5 1    
     8    4   75 1    
     9    5    6 1    
    10    5   35 1    
    11    5   76 1    
    12    6    7 1    
    13    6   77 1    
    14    6   78 1    
    15    7    8 1    
    16    8    9 1    
    17    8   79 1    
    18    8   80 1    
    19    9   10 ar   
    20    9   14 ar   
    21   10   11 ar   
    22   10   81 1    
    23   11   12 ar   
    24   11   71 1    
    25   12   13 ar   
    26   12   82 1    
    27   13   14 ar   
    28   13   15 1    
    29   14   83 1    
    30   15   16 1    
    31   15   84 1    
    32   15   85 1    
    33   16   17 1    
    34   17   18 1    
    35   17   86 1    
    36   17   87 1    
    37   18   19 1    
    38   18   37 1    
    39   18   88 1    
    40   19   20 am   BACKBONE|DICT|INTERRES
    41   19   89 1    
    42   20   21 2    
    43   20   22 1    
    44   22   23 1    
    45   22   24 1    
    46   22   90 1    
    47   23   91 1    
    48   23   92 1    
    49   23   93 1    
    50   24   25 am   BACKBONE|DICT|INTERRES
    51   24   94 1    
    52   25   26 2    
    53   25   27 1    
    54   27   28 1    
    55   27   29 1    
    56   27   95 1    
    57   28   96 1    
    58   28   97 1    
    59   28   98 1    
    60   29   30 am   BACKBONE|DICT|INTERRES
    61   29   99 1    
    62   30   31 2    
    63   30   32 1    
    64   32   33 1    
    65   32   34 1    
    66   32  100 1    
    67   33  101 1    
    68   33  102 1    
    69   33  103 1    
    70   34   35 am   BACKBONE|DICT|INTERRES
    71   34  104 1    
    72   35   36 2    
    73   37   38 2    
    74   37   39 am   BACKBONE|DICT|INTERRES
    75   39   40 1    
    76   39  105 1    
    77   40   41 1    
    78   40   42 1    
    79   40  106 1    
    80   41  107 1    
    81   41  108 1    
    82   41  109 1    
    83   42   43 2    
    84   42   44 am   BACKBONE|DICT|INTERRES
    85   44   45 1    
    86   44  110 1    
    87   45   46 1    
    88   45   47 1    
    89   45  111 1    
    90   46  112 1    
    91   46  113 1    
    92   46  114 1    
    93   47   48 2    
    94   47   49 am   BACKBONE|DICT|INTERRES
    95   49   50 1    
    96   49  115 1    
    97   50   51 1    
    98   50   52 1    
    99   50  116 1    
   100   51  117 1    
   101   51  118 1    
   102   51  119 1    
   103   52   53 2    
   104   52   54 am   BACKBONE|DICT|INTERRES
   105   54   55 1    
   106   54  120 1    
   107   55   56 1    
   108   55   57 1    
   109   55  121 1    
   110   56  122 1    
   111   56  123 1    
   112   56  124 1    
   113   57   58 2    
   114   57   59 am   BACKBONE|DICT|INTERRES
   115   59   60 1    
   116   59  125 1    
   117   60   61 1    
   118   60   62 1    
   119   60  126 1    
   120   61  127 1    
   121   61  128 1    
   122   61  129 1    
   123   62   63 2    
   124   62   64 am   BACKBONE|DICT|INTERRES
   125   64   65 1    
   126   64  130 1    
   127   65   66 1    
   128   65   69 1    
   129   65  131 1    
   130   66   67 am   BACKBONE|DICT|INTERRES
   131   66   68 2    
   132   67  132 1    
   133   67  133 1    
   134   69   70 1    
   135   69  134 1    
   136   69  135 1    
   137   70   71 1    
   138   71  136 1    
   139   71  137 1    
@<TRIPOS>SUBSTRUCTURE
     1 UNK         1 GROUP             0       ****    0 ROOT    
