@<TRIPOS>MOLECULE
3R137
137   139    1
SMALL
USER_CHARGES


@<TRIPOS>ATOM
      1 CA         25.6507   -2.5894   -7.9087 C.3       0 UNK        -0.2020 
      2 C          25.5905   -3.6504   -6.8224 C.2       0 UNK         0.4855 
      3 O          24.8718   -4.6395   -6.9688 O.2       0 UNK        -0.5197 
      4 N          26.3310   -3.4556   -5.7259 N.am      1 UNK        -0.4892 
      5 CA         26.4822   -4.4222   -4.6300 C.3       1 UNK         0.0835 
      6 C6         27.8745   -4.3062   -3.9658 C.3       12 UNK        -0.0855 
      7 S7         29.2131   -4.8428   -5.0817 S.3       12 UNK        -0.2931 
      8 C8         30.5534   -5.1500   -3.8885 C.3       12 UNK         0.0378 
      9 C9         31.0896   -3.8476   -3.3150 C.ar      12 UNK        -0.0802 
     10 C10        32.1685   -3.2042   -3.9245 C.ar      12 UNK        -0.0944 
     11 C11        32.6506   -1.9911   -3.4231 C.ar      12 UNK        -0.0787 
     12 C12        32.0396   -1.4170   -2.3034 C.ar      12 UNK        -0.0862 
     13 C13        30.9652   -2.0601   -1.6784 C.ar      12 UNK        -0.0733 
     14 C14        30.5049   -3.2797   -2.1806 C.ar      12 UNK        -0.0832 
     15 C15        30.2967   -1.4539   -0.4544 C.3       12 UNK         0.0240 
     16 S16        28.6638   -0.7563   -0.8585 S.3       12 UNK        -0.2522 
     17 C17        29.1291    0.7409   -1.7896 C.3       12 UNK        -0.0967 
     18 CA         28.6802    0.6969   -3.2739 C.3       5 UNK         0.0660 
     19 N          27.2207    0.6195   -3.3896 N.am      5 UNK        -0.4015 
     20 C          26.5382    0.1450   -4.4363 C.2       4 UNK         0.4946 
     21 O          27.0569   -0.4859   -5.3611 O.2       4 UNK        -0.5353 
     22 CA         25.0352    0.4803   -4.4673 C.3       4 UNK         0.0277 
     23 CB         24.4010    0.2225   -5.8448 C.3       4 UNK        -0.1981 
     24 N          24.2783   -0.2566   -3.4604 N.am      4 UNK        -0.4209 
     25 C          24.2953   -0.0565   -2.1380 C.2       3 UNK         0.4942 
     26 O          24.9499    0.8370   -1.5981 O.2       3 UNK        -0.5208 
     27 CA         23.4643   -1.0163   -1.2626 C.3       3 UNK         0.0250 
     28 CB         22.0990   -0.3994   -0.9010 C.3       3 UNK        -0.1990 
     29 N          23.3210   -2.3746   -1.8144 N.am      3 UNK        -0.4232 
     30 C          22.6518   -2.7827   -2.9026 C.2       2 UNK         0.4993 
     31 O          21.9931   -2.0348   -3.6264 O.2       2 UNK        -0.5286 
     32 CA         22.8542   -4.2515   -3.3114 C.3       2 UNK         0.0209 
     33 CB         21.6730   -4.7929   -4.1372 C.3       2 UNK        -0.1931 
     34 N          24.0852   -4.3984   -4.0924 N.am      2 UNK        -0.4546 
     35 C          25.3307   -4.2969   -3.6096 C.2       1 UNK         0.5154 
     36 O          25.5741   -4.1103   -2.4151 O.2       1 UNK        -0.5181 
     37 C          29.1544    1.9477   -4.0479 C.2       5 UNK         0.5014 
     38 O          29.6263    2.9089   -3.4368 O.2       5 UNK        -0.5248 
     39 N          28.9367    1.9547   -5.3674 N.am      6 UNK        -0.4434 
     40 CA         29.0744    3.1227   -6.2347 C.3       6 UNK         0.0363 
     41 CB         27.7799    3.9625   -6.1699 C.3       6 UNK        -0.1936 
     42 C          29.4271    2.6753   -7.6587 C.2       6 UNK         0.5081 
     43 O          29.9087    1.5559   -7.8466 O.2       6 UNK        -0.5248 
     44 N          29.1955    3.5528   -8.6454 N.am      7 UNK        -0.4718 
     45 CA         29.5262    3.3682  -10.0651 C.3       7 UNK         0.0273 
     46 CB         29.0812    4.6080  -10.8561 C.3       7 UNK        -0.1935 
     47 C          28.9536    2.0908  -10.7039 C.2       7 UNK         0.5018 
     48 O          29.6081    1.5122  -11.5698 O.2       7 UNK        -0.5186 
     49 N          27.7899    1.6321  -10.2222 N.am      8 UNK        -0.4240 
     50 CA         27.1682    0.3591  -10.6038 C.3       8 UNK         0.0235 
     51 CB         25.7622    0.2820   -9.9885 C.3       8 UNK        -0.2000 
     52 C          28.0006   -0.8828  -10.2212 C.2       8 UNK         0.4941 
     53 O          27.8881   -1.9075  -10.8939 O.2       8 UNK        -0.5273 
     54 N          28.8292   -0.7655   -9.1742 N.am      9 UNK        -0.4262 
     55 CA         29.8047   -1.7705   -8.7437 C.3       9 UNK         0.0264 
     56 CB         29.7687   -1.8564   -7.2064 C.3       9 UNK        -0.1955 
     57 C          31.2312   -1.4368   -9.2277 C.2       9 UNK         0.5031 
     58 O          32.1558   -2.1830   -8.9050 O.2       9 UNK        -0.5390 
     59 N          31.3927   -0.3239   -9.9642 N.am      10 UNK        -0.4204 
     60 CA         32.6511    0.3232  -10.3599 C.3       10 UNK         0.0237 
     61 CB         33.4790   -0.5800  -11.2994 C.3       10 UNK        -0.1985 
     62 C          33.4609    0.8555   -9.1574 C.2       10 UNK         0.4970 
     63 O          34.6902    0.9102   -9.2265 O.2       10 UNK        -0.4914 
     64 N          32.7571    1.2502   -8.0887 N.am      11 UNK        -0.4285 
     65 CA         33.3134    1.7230   -6.8098 C.3       11 UNK         0.1007 
     66 C          33.0535    3.2351   -6.5517 C.2       11 UNK         0.5703 
     67 N          32.5978    4.0075   -7.5314 N.am      11 UNK        -0.7361 
     68 O          33.2938    3.7290   -5.4530 O.2       11 UNK        -0.4986 
     69 C69        32.8310    0.8242   -5.6375 C.3       12 UNK        -0.0947 
     70 S70        33.5071   -0.8612   -5.8034 S.3       12 UNK        -0.2240 
     71 C71        33.8531   -1.3305   -4.0805 C.3       12 UNK         0.0194 
     72 H72        26.2870   -1.7530   -7.6214 H         1 UNK         0.0906 
     73 H73        26.0526   -3.0185   -8.8262 H         1 UNK         0.0906 
     74 H74        24.6532   -2.2061   -8.1205 H         1 UNK         0.0906 
     75 H75        26.8418   -2.5842   -5.6202 H         1 UNK         0.3140 
     76 H76        26.4042   -5.4329   -5.0380 H         1 UNK         0.1085 
     77 H77        27.9242   -4.9294   -3.0708 H         1 UNK         0.0836 
     78 H78        28.0608   -3.2794   -3.6441 H         1 UNK         0.0836 
     79 H79        31.3548   -5.6924   -4.3926 H         1 UNK         0.0731 
     80 H80        30.2007   -5.8046   -3.0899 H         1 UNK         0.0731 
     81 H81        32.6310   -3.6428   -4.7985 H         1 UNK         0.1312 
     82 H82        32.4073   -0.4783   -1.9122 H         1 UNK         0.1406 
     83 H83        29.6733   -3.7742   -1.6972 H         1 UNK         0.1631 
     84 H84        30.9254   -0.6855   -0.0017 H         1 UNK         0.0717 
     85 H85        30.1692   -2.2268    0.3050 H         1 UNK         0.0717 
     86 H86        28.6865    1.5988   -1.2794 H         1 UNK         0.0934 
     87 H87        30.2091    0.8841   -1.7258 H         1 UNK         0.0934 
     88 H88        29.1307   -0.1802   -3.7451 H         1 UNK         0.0739 
     89 H89        26.6868    1.0511   -2.6424 H         1 UNK         0.3093 
     90 H90        24.9389    1.5477   -4.2566 H         1 UNK         0.0818 
     91 H91        24.9602    0.7233   -6.6356 H         1 UNK         0.0819 
     92 H92        24.3726   -0.8409   -6.0782 H         1 UNK         0.0819 
     93 H93        23.3784    0.5978   -5.8850 H         1 UNK         0.0819 
     94 H94        23.6495   -0.9769   -3.8000 H         1 UNK         0.3041 
     95 H95        24.0239   -1.1386   -0.3337 H         1 UNK         0.0784 
     96 H96        22.2292    0.5528   -0.3849 H         1 UNK         0.0793 
     97 H97        21.4897   -0.2053   -1.7841 H         1 UNK         0.0793 
     98 H98        21.5317   -1.0523   -0.2378 H         1 UNK         0.0793 
     99 H99        23.9394   -3.0605   -1.3952 H         1 UNK         0.3024 
    100 H100       22.9349   -4.8529   -2.4027 H         1 UNK         0.1171 
    101 H101       21.5661   -4.2676   -5.0873 H         1 UNK         0.0786 
    102 H102       21.7956   -5.8541   -4.3546 H         1 UNK         0.0786 
    103 H103       20.7336   -4.6800   -3.5943 H         1 UNK         0.0786 
    104 H104       23.9862   -4.5283   -5.0940 H         1 UNK         0.2977 
    105 H105       28.5862    1.1127   -5.8114 H         1 UNK         0.3127 
    106 H106       29.9116    3.7310   -5.8861 H         1 UNK         0.0770 
    107 H107       27.8803    4.9042   -6.7102 H         1 UNK         0.0814 
    108 H108       27.5283    4.2224   -5.1415 H         1 UNK         0.0814 
    109 H109       26.9293    3.4248   -6.5910 H         1 UNK         0.0814 
    110 H110       28.7977    4.4475   -8.3974 H         1 UNK         0.2983 
    111 H111       30.6133    3.2953  -10.1345 H         1 UNK         0.0947 
    112 H112       29.3335    4.5092  -11.9131 H         1 UNK         0.0806 
    113 H113       29.5738    5.5100  -10.4924 H         1 UNK         0.0806 
    114 H114       28.0035    4.7635  -10.7917 H         1 UNK         0.0806 
    115 H115       27.3245    2.1751   -9.5097 H         1 UNK         0.3000 
    116 H116       27.0656    0.3544  -11.6912 H         1 UNK         0.0850 
    117 H117       25.7960    0.3266   -8.9000 H         1 UNK         0.0810 
    118 H118       25.2653   -0.6492  -10.2645 H         1 UNK         0.0810 
    119 H119       25.1304    1.0985  -10.3384 H         1 UNK         0.0810 
    120 H120       28.8894    0.1252   -8.6894 H         1 UNK         0.3040 
    121 H121       29.5422   -2.7503   -9.1475 H         1 UNK         0.0766 
    122 H122       28.7783   -2.1318   -6.8464 H         1 UNK         0.0812 
    123 H123       30.0445   -0.9110   -6.7385 H         1 UNK         0.0812 
    124 H124       30.4650   -2.6107   -6.8375 H         1 UNK         0.0812 
    125 H125       30.5573    0.1814  -10.2347 H         1 UNK         0.3205 
    126 H126       32.3626    1.2050  -10.9335 H         1 UNK         0.0754 
    127 H127       34.3247   -0.0349  -11.7204 H         1 UNK         0.0769 
    128 H128       32.8782   -0.9387  -12.1352 H         1 UNK         0.0769 
    129 H129       33.8820   -1.4484  -10.7776 H         1 UNK         0.0769 
    130 H130       31.7425    1.1974   -8.1159 H         1 UNK         0.2981 
    131 H131       34.4015    1.6492   -6.8436 H         1 UNK         0.0541 
    132 H132       32.4451    3.6281   -8.4504 H         1 UNK         0.3459 
    133 H133       32.4580    4.9900   -7.3579 H         1 UNK         0.3459 
    134 H134       31.7416    0.7689   -5.6103 H         1 UNK         0.0612 
    135 H135       33.1446    1.2340   -4.6764 H         1 UNK         0.0612 
    136 H136       34.6813   -2.0404   -4.0783 H         1 UNK         0.0624 
    137 H137       34.1958   -0.4646   -3.5126 H         1 UNK         0.0624 
@<TRIPOS>BOND
     1    1    2 1    
     2    1   72 1    
     3    1   73 1    
     4    1   74 1    
     5    2    3 2    
     6    2    4 am   BACKBONE|DICT|INTERRES
     7    4    5 1    
     8    4   75 1    
     9    5    6 1    
    10    5   35 1    
    11    5   76 1    
    12    6    7 1    
    13    6   77 1    
    14    6   78 1    
    15    7    8 1    
    16    8    9 1    
    17    8   79 1    
    18    8   80 1    
    19    9   10 ar   
    20    9   14 ar   
    21   10   11 ar   
    22   10   81 1    
    23   11   12 ar   
    24   11   71 1    
    25   12   13 ar   
    26   12   82 1    
    27   13   14 ar   
    28   13   15 1    
    29   14   83 1    
    30   15   16 1    
    31   15   84 1    
    32   15   85 1    
    33   16   17 1    
    34   17   18 1    
    35   17   86 1    
    36   17   87 1    
    37   18   19 1    
    38   18   37 1    
    39   18   88 1    
    40   19   20 am   BACKBONE|DICT|INTERRES
    41   19   89 1    
    42   20   21 2    
    43   20   22 1    
    44   22   23 1    
    45   22   24 1    
    46   22   90 1    
    47   23   91 1    
    48   23   92 1    
    49   23   93 1    
    50   24   25 am   BACKBONE|DICT|INTERRES
    51   24   94 1    
    52   25   26 2    
    53   25   27 1    
    54   27   28 1    
    55   27   29 1    
    56   27   95 1    
    57   28   96 1    
    58   28   97 1    
    59   28   98 1    
    60   29   30 am   BACKBONE|DICT|INTERRES
    61   29   99 1    
    62   30   31 2    
    63   30   32 1    
    64   32   33 1    
    65   32   34 1    
    66   32  100 1    
    67   33  101 1    
    68   33  102 1    
    69   33  103 1    
    70   34   35 am   BACKBONE|DICT|INTERRES
    71   34  104 1    
    72   35   36 2    
    73   37   38 2    
    74   37   39 am   BACKBONE|DICT|INTERRES
    75   39   40 1    
    76   39  105 1    
    77   40   41 1    
    78   40   42 1    
    79   40  106 1    
    80   41  107 1    
    81   41  108 1    
    82   41  109 1    
    83   42   43 2    
    84   42   44 am   BACKBONE|DICT|INTERRES
    85   44   45 1    
    86   44  110 1    
    87   45   46 1    
    88   45   47 1    
    89   45  111 1    
    90   46  112 1    
    91   46  113 1    
    92   46  114 1    
    93   47   48 2    
    94   47   49 am   BACKBONE|DICT|INTERRES
    95   49   50 1    
    96   49  115 1    
    97   50   51 1    
    98   50   52 1    
    99   50  116 1    
   100   51  117 1    
   101   51  118 1    
   102   51  119 1    
   103   52   53 2    
   104   52   54 am   BACKBONE|DICT|INTERRES
   105   54   55 1    
   106   54  120 1    
   107   55   56 1    
   108   55   57 1    
   109   55  121 1    
   110   56  122 1    
   111   56  123 1    
   112   56  124 1    
   113   57   58 2    
   114   57   59 am   BACKBONE|DICT|INTERRES
   115   59   60 1    
   116   59  125 1    
   117   60   61 1    
   118   60   62 1    
   119   60  126 1    
   120   61  127 1    
   121   61  128 1    
   122   61  129 1    
   123   62   63 2    
   124   62   64 am   BACKBONE|DICT|INTERRES
   125   64   65 1    
   126   64  130 1    
   127   65   66 1    
   128   65   69 1    
   129   65  131 1    
   130   66   67 am   BACKBONE|DICT|INTERRES
   131   66   68 2    
   132   67  132 1    
   133   67  133 1    
   134   69   70 1    
   135   69  134 1    
   136   69  135 1    
   137   70   71 1    
   138   71  136 1    
   139   71  137 1    
@<TRIPOS>SUBSTRUCTURE
     1 UNK         1 GROUP             0       ****    0 ROOT    
