@<TRIPOS>MOLECULE
3R137
137   139    1
SMALL
USER_CHARGES


@<TRIPOS>ATOM
      1 CA         26.3998   -6.6744    2.1749 C.3       0 UNK        -0.2020 
      2 C          26.5490   -5.2393    1.6925 C.2       0 UNK         0.4855 
      3 O          25.7765   -4.3721    2.1022 O.2       0 UNK        -0.5197 
      4 N          27.5402   -4.9790    0.8308 N.am      1 UNK        -0.4892 
      5 CA         27.7843   -3.6754    0.2079 C.3       1 UNK         0.0835 
      6 C6         29.2398   -3.5734   -0.3222 C.3       12 UNK        -0.0855 
      7 S7         29.9182   -1.8771   -0.2896 S.3       12 UNK        -0.2931 
      8 C8         29.4512   -1.1738   -1.9060 C.3       12 UNK         0.0378 
      9 C9         30.0702   -1.9115   -3.0857 C.ar      12 UNK        -0.0802 
     10 C10        31.3424   -1.5754   -3.5569 C.ar      12 UNK        -0.0944 
     11 C11        31.9084   -2.2762   -4.6280 C.ar      12 UNK        -0.0787 
     12 C12        31.1934   -3.3229   -5.2246 C.ar      12 UNK        -0.0862 
     13 C13        29.9237   -3.6734   -4.7538 C.ar      12 UNK        -0.0733 
     14 C14        29.3628   -2.9418   -3.7063 C.ar      12 UNK        -0.0832 
     15 C15        29.1962   -4.8999   -5.2952 C.3       12 UNK         0.0240 
     16 S16        28.1770   -4.5680   -6.7662 S.3       12 UNK        -0.2522 
     17 C17        26.7937   -3.5800   -6.0894 C.3       12 UNK        -0.0967 
     18 CA         26.5085   -2.3086   -6.9233 C.3       5 UNK         0.0660 
     19 N          25.2979   -1.6136   -6.4852 N.am      5 UNK        -0.4015 
     20 C          24.6560   -0.6928   -7.2207 C.2       4 UNK         0.4946 
     21 O          24.9736   -0.3865   -8.3706 O.2       4 UNK        -0.5353 
     22 CA         23.4951    0.0488   -6.5369 C.3       4 UNK         0.0277 
     23 CB         22.2115   -0.7961   -6.5707 C.3       4 UNK        -0.1981 
     24 N          23.8063    0.4244   -5.1549 N.am      4 UNK        -0.4209 
     25 C          24.7833    1.2745   -4.8064 C.2       3 UNK         0.4942 
     26 O          25.4762    1.8843   -5.6186 O.2       3 UNK        -0.5208 
     27 CA         25.0640    1.4581   -3.3059 C.3       3 UNK         0.0250 
     28 CB         24.3299    2.6987   -2.7734 C.3       3 UNK        -0.1990 
     29 N          24.7227    0.2969   -2.4786 N.am      3 UNK        -0.4232 
     30 C          25.2796   -0.9190   -2.5728 C.2       2 UNK         0.4993 
     31 O          26.1167   -1.2293   -3.4254 O.2       2 UNK        -0.5286 
     32 CA         24.7775   -1.9552   -1.5569 C.3       2 UNK         0.0209 
     33 CB         23.9661   -3.0769   -2.2391 C.3       2 UNK        -0.1931 
     34 N          25.8614   -2.4446   -0.6922 N.am      2 UNK        -0.4546 
     35 C          26.7329   -3.4427   -0.8990 C.2       1 UNK         0.5154 
     36 O          26.7223   -4.1965   -1.8740 O.2       1 UNK        -0.5181 
     37 C          27.7034   -1.3389   -6.9677 C.2       5 UNK         0.5014 
     38 O          28.4384   -1.3539   -7.9541 O.2       5 UNK        -0.5248 
     39 N          27.8423   -0.4795   -5.9450 N.am      6 UNK        -0.4434 
     40 CA         28.8868    0.5483   -5.8777 C.3       6 UNK         0.0363 
     41 CB         28.7739    1.3402   -4.5662 C.3       6 UNK        -0.1936 
     42 C          28.8581    1.5092   -7.0778 C.2       6 UNK         0.5081 
     43 O          29.9107    1.7992   -7.6432 O.2       6 UNK        -0.5248 
     44 N          27.6553    1.9547   -7.4647 N.am      7 UNK        -0.4718 
     45 CA         27.4131    2.7797   -8.6471 C.3       7 UNK         0.0273 
     46 CB         25.9615    3.2848   -8.6345 C.3       7 UNK        -0.1935 
     47 C          27.7238    2.0418   -9.9590 C.2       7 UNK         0.5018 
     48 O          28.3931    2.6121  -10.8205 O.2       7 UNK        -0.5186 
     49 N          27.2541    0.7910  -10.0826 N.am      8 UNK        -0.4240 
     50 CA         27.4633   -0.0602  -11.2587 C.3       8 UNK         0.0235 
     51 CB         26.5943   -1.3231  -11.1472 C.3       8 UNK        -0.2000 
     52 C          28.9379   -0.4347  -11.4856 C.2       8 UNK         0.4941 
     53 O          29.4086   -0.3766  -12.6222 O.2       8 UNK        -0.5273 
     54 N          29.6407   -0.7982  -10.4054 N.am      9 UNK        -0.4262 
     55 CA         31.0618   -1.1531  -10.4122 C.3       9 UNK         0.0264 
     56 CB         31.3506   -2.0481   -9.1961 C.3       9 UNK        -0.1955 
     57 C          32.0029    0.0673  -10.4310 C.2       9 UNK         0.5031 
     58 O          33.1999   -0.1149  -10.6591 O.2       9 UNK        -0.5390 
     59 N          31.4593    1.2714  -10.1934 N.am      10 UNK        -0.4204 
     60 CA         32.1481    2.5631  -10.0787 C.3       10 UNK         0.0237 
     61 CB         32.7905    2.9759  -11.4205 C.3       10 UNK        -0.1985 
     62 C          33.1297    2.6025   -8.8899 C.2       10 UNK         0.4970 
     63 O          34.2528    3.0925   -9.0249 O.2       10 UNK        -0.4914 
     64 N          32.6743    2.0842   -7.7444 N.am      11 UNK        -0.4285 
     65 CA         33.4090    2.0473   -6.4711 C.3       11 UNK         0.1007 
     66 C          33.2946    3.3619   -5.6475 C.2       11 UNK         0.5703 
     67 N          32.4217    4.2985   -6.0018 N.am      11 UNK        -0.7361 
     68 O          34.0222    3.5406   -4.6736 O.2       11 UNK        -0.4986 
     69 C69        33.0034    0.8186   -5.6147 C.3       12 UNK        -0.0947 
     70 S70        33.3231   -0.7564   -6.4752 S.3       12 UNK        -0.2240 
     71 C71        33.3173   -1.9453   -5.1003 C.3       12 UNK         0.0194 
     72 H72        27.1550   -7.3313    1.7436 H         1 UNK         0.0906 
     73 H73        26.4934   -6.7173    3.2598 H         1 UNK         0.0906 
     74 H74        25.4183   -7.0614    1.9021 H         1 UNK         0.0906 
     75 H75        28.1187   -5.7378    0.4983 H         1 UNK         0.3140 
     76 H76        27.6555   -2.9173    0.9843 H         1 UNK         0.1085 
     77 H77        29.3606   -4.0368   -1.3005 H         1 UNK         0.0836 
     78 H78        29.8986   -4.1480    0.3312 H         1 UNK         0.0836 
     79 H79        29.7717   -0.1314   -1.9214 H         1 UNK         0.0731 
     80 H80        28.3652   -1.1570   -1.9940 H         1 UNK         0.0731 
     81 H81        31.8980   -0.7798   -3.0798 H         1 UNK         0.1312 
     82 H82        31.6389   -3.8853   -6.0338 H         1 UNK         0.1406 
     83 H83        28.3832   -3.2018   -3.3399 H         1 UNK         0.1631 
     84 H84        28.5674   -5.3394   -4.5187 H         1 UNK         0.0717 
     85 H85        29.9286   -5.6665   -5.5522 H         1 UNK         0.0717 
     86 H86        25.9102   -4.2202   -6.0853 H         1 UNK         0.0934 
     87 H87        26.9714   -3.3236   -5.0463 H         1 UNK         0.0934 
     88 H88        26.3297   -2.6360   -7.9501 H         1 UNK         0.0739 
     89 H89        25.0153   -1.7583   -5.5262 H         1 UNK         0.3093 
     90 H90        23.3149    0.9675   -7.0997 H         1 UNK         0.0818 
     91 H91        21.3624   -0.2435   -6.1679 H         1 UNK         0.0819 
     92 H92        21.9568   -1.0751   -7.5943 H         1 UNK         0.0819 
     93 H93        22.3146   -1.7185   -5.9978 H         1 UNK         0.0819 
     94 H94        23.2700   -0.0175   -4.4230 H         1 UNK         0.3041 
     95 H95        26.1360    1.6274   -3.1949 H         1 UNK         0.0784 
     96 H96        24.5887    3.5846   -3.3555 H         1 UNK         0.0793 
     97 H97        23.2466    2.5813   -2.8238 H         1 UNK         0.0793 
     98 H98        24.5988    2.9062   -1.7374 H         1 UNK         0.0793 
     99 H99        24.0338    0.4586   -1.7575 H         1 UNK         0.3024 
    100 H100       24.0892   -1.4527   -0.8748 H         1 UNK         0.1171 
    101 H101       23.6619   -3.8409   -1.5237 H         1 UNK         0.0786 
    102 H102       23.0585   -2.6765   -2.6920 H         1 UNK         0.0786 
    103 H103       24.5285   -3.5651   -3.0358 H         1 UNK         0.0786 
    104 H104       25.9707   -1.9202    0.1654 H         1 UNK         0.2977 
    105 H105       27.2096   -0.5532   -5.1563 H         1 UNK         0.3127 
    106 H106       29.8410    0.0180   -5.8858 H         1 UNK         0.0770 
    107 H107       27.9824    2.0883   -4.6088 H         1 UNK         0.0814 
    108 H108       29.7036    1.8697   -4.3557 H         1 UNK         0.0814 
    109 H109       28.5637    0.6905   -3.7206 H         1 UNK         0.0814 
    110 H110       26.8448    1.7234   -6.8937 H         1 UNK         0.2983 
    111 H111       28.0763    3.6457   -8.5900 H         1 UNK         0.0947 
    112 H112       25.7565    3.9107   -9.5040 H         1 UNK         0.0806 
    113 H113       25.7603    3.8852   -7.7470 H         1 UNK         0.0806 
    114 H114       25.2466    2.4609   -8.6464 H         1 UNK         0.0806 
    115 H115       26.6941    0.4018   -9.3308 H         1 UNK         0.3000 
    116 H116       27.1300    0.5022  -12.1335 H         1 UNK         0.0850 
    117 H117       26.7153   -1.9600  -12.0244 H         1 UNK         0.0810 
    118 H118       25.5363   -1.0710  -11.0726 H         1 UNK         0.0810 
    119 H119       26.8581   -1.9179  -10.2722 H         1 UNK         0.0810 
    120 H120       29.1611   -0.8737   -9.5063 H         1 UNK         0.3040 
    121 H121       31.2710   -1.7334  -11.3133 H         1 UNK         0.0766 
    122 H122       31.1229   -1.5350   -8.2612 H         1 UNK         0.0812 
    123 H123       32.4001   -2.3432   -9.1613 H         1 UNK         0.0812 
    124 H124       30.7555   -2.9610   -9.2238 H         1 UNK         0.0812 
    125 H125       30.4699    1.2945   -9.9815 H         1 UNK         0.3205 
    126 H126       31.3710    3.2945   -9.8513 H         1 UNK         0.0754 
    127 H127       33.1843    3.9917  -11.3678 H         1 UNK         0.0769 
    128 H128       32.0618    2.9530  -12.2309 H         1 UNK         0.0769 
    129 H129       33.6184    2.3213  -11.6944 H         1 UNK         0.0769 
    130 H130       31.7052    1.7724   -7.7100 H         1 UNK         0.2981 
    131 H131       34.4705    1.9398   -6.7021 H         1 UNK         0.0541 
    132 H132       31.8142    4.1555   -6.7923 H         1 UNK         0.3459 
    133 H133       32.3628    5.1483   -5.4636 H         1 UNK         0.3459 
    134 H134       31.9475    0.8667   -5.3478 H         1 UNK         0.0612 
    135 H135       33.5599    0.8102   -4.6758 H         1 UNK         0.0612 
    136 H136       33.8133   -2.8584   -5.4328 H         1 UNK         0.0624 
    137 H137       33.9193   -1.5601   -4.2760 H         1 UNK         0.0624 
@<TRIPOS>BOND
     1    1    2 1    
     2    1   72 1    
     3    1   73 1    
     4    1   74 1    
     5    2    3 2    
     6    2    4 am   BACKBONE|DICT|INTERRES
     7    4    5 1    
     8    4   75 1    
     9    5    6 1    
    10    5   35 1    
    11    5   76 1    
    12    6    7 1    
    13    6   77 1    
    14    6   78 1    
    15    7    8 1    
    16    8    9 1    
    17    8   79 1    
    18    8   80 1    
    19    9   10 ar   
    20    9   14 ar   
    21   10   11 ar   
    22   10   81 1    
    23   11   12 ar   
    24   11   71 1    
    25   12   13 ar   
    26   12   82 1    
    27   13   14 ar   
    28   13   15 1    
    29   14   83 1    
    30   15   16 1    
    31   15   84 1    
    32   15   85 1    
    33   16   17 1    
    34   17   18 1    
    35   17   86 1    
    36   17   87 1    
    37   18   19 1    
    38   18   37 1    
    39   18   88 1    
    40   19   20 am   BACKBONE|DICT|INTERRES
    41   19   89 1    
    42   20   21 2    
    43   20   22 1    
    44   22   23 1    
    45   22   24 1    
    46   22   90 1    
    47   23   91 1    
    48   23   92 1    
    49   23   93 1    
    50   24   25 am   BACKBONE|DICT|INTERRES
    51   24   94 1    
    52   25   26 2    
    53   25   27 1    
    54   27   28 1    
    55   27   29 1    
    56   27   95 1    
    57   28   96 1    
    58   28   97 1    
    59   28   98 1    
    60   29   30 am   BACKBONE|DICT|INTERRES
    61   29   99 1    
    62   30   31 2    
    63   30   32 1    
    64   32   33 1    
    65   32   34 1    
    66   32  100 1    
    67   33  101 1    
    68   33  102 1    
    69   33  103 1    
    70   34   35 am   BACKBONE|DICT|INTERRES
    71   34  104 1    
    72   35   36 2    
    73   37   38 2    
    74   37   39 am   BACKBONE|DICT|INTERRES
    75   39   40 1    
    76   39  105 1    
    77   40   41 1    
    78   40   42 1    
    79   40  106 1    
    80   41  107 1    
    81   41  108 1    
    82   41  109 1    
    83   42   43 2    
    84   42   44 am   BACKBONE|DICT|INTERRES
    85   44   45 1    
    86   44  110 1    
    87   45   46 1    
    88   45   47 1    
    89   45  111 1    
    90   46  112 1    
    91   46  113 1    
    92   46  114 1    
    93   47   48 2    
    94   47   49 am   BACKBONE|DICT|INTERRES
    95   49   50 1    
    96   49  115 1    
    97   50   51 1    
    98   50   52 1    
    99   50  116 1    
   100   51  117 1    
   101   51  118 1    
   102   51  119 1    
   103   52   53 2    
   104   52   54 am   BACKBONE|DICT|INTERRES
   105   54   55 1    
   106   54  120 1    
   107   55   56 1    
   108   55   57 1    
   109   55  121 1    
   110   56  122 1    
   111   56  123 1    
   112   56  124 1    
   113   57   58 2    
   114   57   59 am   BACKBONE|DICT|INTERRES
   115   59   60 1    
   116   59  125 1    
   117   60   61 1    
   118   60   62 1    
   119   60  126 1    
   120   61  127 1    
   121   61  128 1    
   122   61  129 1    
   123   62   63 2    
   124   62   64 am   BACKBONE|DICT|INTERRES
   125   64   65 1    
   126   64  130 1    
   127   65   66 1    
   128   65   69 1    
   129   65  131 1    
   130   66   67 am   BACKBONE|DICT|INTERRES
   131   66   68 2    
   132   67  132 1    
   133   67  133 1    
   134   69   70 1    
   135   69  134 1    
   136   69  135 1    
   137   70   71 1    
   138   71  136 1    
   139   71  137 1    
@<TRIPOS>SUBSTRUCTURE
     1 UNK         1 GROUP             0       ****    0 ROOT    
