@<TRIPOS>MOLECULE
3R137
137   139    1
SMALL
USER_CHARGES


@<TRIPOS>ATOM
      1 CA         24.2650   -5.4403   -5.4170 C.3       0 UNK        -0.2020 
      2 C          24.7373   -4.9528   -4.0562 C.2       0 UNK         0.4855 
      3 O          23.9626   -4.3347   -3.3255 O.2       0 UNK        -0.5197 
      4 N          26.0064   -5.2103   -3.7117 N.am      1 UNK        -0.4892 
      5 CA         26.6378   -4.7835   -2.4583 C.3       1 UNK         0.0835 
      6 C6         28.0468   -5.3987   -2.3004 C.3       12 UNK        -0.0855 
      7 S7         28.6855   -5.2138   -0.6008 S.3       12 UNK        -0.2931 
      8 C8         30.4842   -5.2181   -0.8798 C.3       12 UNK         0.0378 
      9 C9         30.9642   -4.0264   -1.6997 C.ar      12 UNK        -0.0802 
     10 C10        31.5422   -4.2293   -2.9565 C.ar      12 UNK        -0.0944 
     11 C11        32.0536   -3.1528   -3.6858 C.ar      12 UNK        -0.0787 
     12 C12        31.9827   -1.8646   -3.1477 C.ar      12 UNK        -0.0862 
     13 C13        31.3673   -1.6382   -1.9119 C.ar      12 UNK        -0.0733 
     14 C14        30.8686   -2.7276   -1.1889 C.ar      12 UNK        -0.0832 
     15 C15        31.2690   -0.2296   -1.3301 C.3       12 UNK         0.0240 
     16 S16        30.7175    1.0354   -2.5285 S.3       12 UNK        -0.2522 
     17 C17        29.0283    0.4786   -2.9311 C.3       12 UNK        -0.0967 
     18 CA         28.6937    0.6816   -4.4327 C.3       5 UNK         0.0660 
     19 N          27.8249   -0.3808   -4.9441 N.am      5 UNK        -0.4015 
     20 C          27.4784   -0.5415   -6.2286 C.2       4 UNK         0.4946 
     21 O          27.9128    0.1483   -7.1484 O.2       4 UNK        -0.5353 
     22 CA         26.4258   -1.6181   -6.5304 C.3       4 UNK         0.0277 
     23 CB         27.0741   -3.0078   -6.6447 C.3       4 UNK        -0.1981 
     24 N          25.3616   -1.6279   -5.5224 N.am      4 UNK        -0.4209 
     25 C          24.4525   -0.6502   -5.3843 C.2       3 UNK         0.4942 
     26 O          24.3711    0.3178   -6.1381 O.2       3 UNK        -0.5208 
     27 CA         23.5084   -0.7334   -4.1746 C.3       3 UNK         0.0250 
     28 CB         22.2795   -1.5975   -4.4975 C.3       3 UNK        -0.1990 
     29 N          24.1834   -1.2366   -2.9755 N.am      3 UNK        -0.4232 
     30 C          25.1210   -0.5456   -2.3070 C.2       2 UNK         0.4993 
     31 O          25.4750    0.5919   -2.6131 O.2       2 UNK        -0.5286 
     32 CA         25.8288   -1.2517   -1.1374 C.3       2 UNK         0.0209 
     33 CB         25.0777   -0.9994    0.1789 C.3       2 UNK        -0.1931 
     34 N          25.9981   -2.6933   -1.3377 N.am      2 UNK        -0.4546 
     35 C          26.6640   -3.2446   -2.3613 C.2       1 UNK         0.5154 
     36 O          27.2340   -2.5885   -3.2359 O.2       1 UNK        -0.5181 
     37 C          28.1255    2.0898   -4.7206 C.2       5 UNK         0.5014 
     38 O          28.8675    2.9612   -5.1760 O.2       5 UNK        -0.5248 
     39 N          26.8181    2.2768   -4.4822 N.am      6 UNK        -0.4434 
     40 CA         26.0829    3.5097   -4.7728 C.3       6 UNK         0.0363 
     41 CB         24.6969    3.4538   -4.1107 C.3       6 UNK        -0.1936 
     42 C          25.9528    3.8012   -6.2782 C.2       6 UNK         0.5081 
     43 O          26.1419    4.9486   -6.6837 O.2       6 UNK        -0.5248 
     44 N          25.6295    2.7741   -7.0785 N.am      7 UNK        -0.4718 
     45 CA         25.5074    2.8698   -8.5387 C.3       7 UNK         0.0273 
     46 CB         24.8312    1.6011   -9.0820 C.3       7 UNK        -0.1935 
     47 C          26.8517    3.1048   -9.2504 C.2       7 UNK         0.5018 
     48 O          26.8738    3.7792  -10.2816 O.2       7 UNK        -0.5186 
     49 N          27.9299    2.5558   -8.6757 N.am      8 UNK        -0.4240 
     50 CA         29.3161    2.5707   -9.1445 C.3       8 UNK         0.0235 
     51 CB         29.8462    4.0146   -9.3001 C.3       8 UNK        -0.2000 
     52 C          29.5354    1.6883  -10.3909 C.2       8 UNK         0.4941 
     53 O          28.6569    0.9009  -10.7514 O.2       8 UNK        -0.5273 
     54 N          30.7276    1.8271  -10.9922 N.am      9 UNK        -0.4262 
     55 CA         31.3545    0.9844  -12.0204 C.3       9 UNK         0.0264 
     56 CB         30.4343    0.6953  -13.2242 C.3       9 UNK        -0.1955 
     57 C          31.9041   -0.2994  -11.3782 C.2       9 UNK         0.5031 
     58 O          31.1359   -1.0990  -10.8389 O.2       9 UNK        -0.5390 
     59 N          33.2378   -0.4413  -11.3979 N.am      10 UNK        -0.4204 
     60 CA         34.0623   -1.4236  -10.6741 C.3       10 UNK         0.0237 
     61 CB         33.7158   -2.8804  -11.0454 C.3       10 UNK        -0.1985 
     62 C          34.0437   -1.1922   -9.1519 C.2       10 UNK         0.4970 
     63 O          35.1003   -0.9549   -8.5652 O.2       10 UNK        -0.4914 
     64 N          32.8472   -1.2180   -8.5574 N.am      11 UNK        -0.4285 
     65 CA         32.5666   -0.7309   -7.2017 C.3       11 UNK         0.1007 
     66 C          32.4214    0.8184   -7.1644 C.2       11 UNK         0.5703 
     67 N          32.3156    1.4065   -5.9806 N.am      11 UNK        -0.7361 
     68 O          32.4034    1.4989   -8.1895 O.2       11 UNK        -0.4986 
     69 C69        31.3349   -1.4488   -6.5855 C.3       12 UNK        -0.0947 
     70 S70        31.5558   -3.2539   -6.4305 S.3       12 UNK        -0.2240 
     71 C71        32.7201   -3.3927   -5.0332 C.3       12 UNK         0.0194 
     72 H72        25.0481   -5.9749   -5.9543 H         1 UNK         0.0906 
     73 H73        23.4156   -6.1125   -5.2988 H         1 UNK         0.0906 
     74 H74        23.9480   -4.5963   -6.0291 H         1 UNK         0.0906 
     75 H75        26.6056   -5.7036   -4.3582 H         1 UNK         0.3140 
     76 H76        26.0122   -5.1708   -1.6506 H         1 UNK         0.1085 
     77 H77        28.0175   -6.4669   -2.5215 H         1 UNK         0.0836 
     78 H78        28.7382   -4.9593   -3.0217 H         1 UNK         0.0836 
     79 H79        30.7650   -6.1586   -1.3567 H         1 UNK         0.0731 
     80 H80        30.9885   -5.2065    0.0875 H         1 UNK         0.0731 
     81 H81        31.6142   -5.2297   -3.3613 H         1 UNK         0.1312 
     82 H82        32.4034   -1.0333   -3.6940 H         1 UNK         0.1406 
     83 H83        30.4138   -2.5717   -0.2198 H         1 UNK         0.1631 
     84 H84        32.2503    0.0566   -0.9496 H         1 UNK         0.0717 
     85 H85        30.5904   -0.2117   -0.4758 H         1 UNK         0.0717 
     86 H86        28.9570   -0.5792   -2.6746 H         1 UNK         0.0934 
     87 H87        28.3133    0.9842   -2.2789 H         1 UNK         0.0934 
     88 H88        29.6167    0.6001   -5.0081 H         1 UNK         0.0739 
     89 H89        27.4788   -1.0563   -4.2663 H         1 UNK         0.3093 
     90 H90        25.9746   -1.3780   -7.4956 H         1 UNK         0.0818 
     91 H91        27.8516   -3.0079   -7.4101 H         1 UNK         0.0819 
     92 H92        27.5436   -3.3224   -5.7128 H         1 UNK         0.0819 
     93 H93        26.3436   -3.7647   -6.9283 H         1 UNK         0.0819 
     94 H94        25.4051   -2.3494   -4.8172 H         1 UNK         0.3041 
     95 H95        23.1575    0.2784   -3.9600 H         1 UNK         0.0784 
     96 H96        21.7258   -1.1818   -5.3405 H         1 UNK         0.0793 
     97 H97        22.5548   -2.6177   -4.7645 H         1 UNK         0.0793 
     98 H98        21.5934   -1.6450   -3.6518 H         1 UNK         0.0793 
     99 H99        23.9797   -2.1902   -2.6985 H         1 UNK         0.3024 
    100 H100       26.8256   -0.8139   -1.0520 H         1 UNK         0.1171 
    101 H101       25.6193   -1.4112    1.0307 H         1 UNK         0.0786 
    102 H102       24.9580    0.0699    0.3603 H         1 UNK         0.0786 
    103 H103       24.0806   -1.4416    0.1675 H         1 UNK         0.0786 
    104 H104       25.5431   -3.2992   -0.6697 H         1 UNK         0.2977 
    105 H105       26.2929    1.5351   -4.0238 H         1 UNK         0.3127 
    106 H106       26.6368    4.3372   -4.3242 H         1 UNK         0.0770 
    107 H107       24.1001    2.6252   -4.4932 H         1 UNK         0.0814 
    108 H108       24.1381    4.3721   -4.2956 H         1 UNK         0.0814 
    109 H109       24.7783    3.3354   -3.0300 H         1 UNK         0.0814 
    110 H110       25.4187    1.8703   -6.6626 H         1 UNK         0.2983 
    111 H111       24.8638    3.7224   -8.7661 H         1 UNK         0.0947 
    112 H112       24.7110    1.6550  -10.1648 H         1 UNK         0.0806 
    113 H113       23.8394    1.4635   -8.6511 H         1 UNK         0.0806 
    114 H114       25.4195    0.7091   -8.8627 H         1 UNK         0.0806 
    115 H115       27.7654    1.9188   -7.9002 H         1 UNK         0.3000 
    116 H116       29.8753    2.0984   -8.3371 H         1 UNK         0.0850 
    117 H117       30.9339    4.0338   -9.3714 H         1 UNK         0.0810 
    118 H118       29.5771    4.6266   -8.4388 H         1 UNK         0.0810 
    119 H119       29.4486    4.5001  -10.1920 H         1 UNK         0.0810 
    120 H120       31.3599    2.4891  -10.5632 H         1 UNK         0.3040 
    121 H121       32.1956    1.5682  -12.3980 H         1 UNK         0.0766 
    122 H122       29.6235    0.0130  -12.9676 H         1 UNK         0.0812 
    123 H123       30.9965    0.2293  -14.0340 H         1 UNK         0.0812 
    124 H124       29.9930    1.6109  -13.6176 H         1 UNK         0.0812 
    125 H125       33.7699    0.2846  -11.8591 H         1 UNK         0.3205 
    126 H126       35.0871   -1.2453  -11.0047 H         1 UNK         0.0754 
    127 H127       34.4189   -3.5735  -10.5818 H         1 UNK         0.0769 
    128 H128       33.7691   -3.0368  -12.1228 H         1 UNK         0.0769 
    129 H129       32.7178   -3.1688  -10.7148 H         1 UNK         0.0769 
    130 H130       32.0397   -1.3551   -9.1588 H         1 UNK         0.2981 
    131 H131       33.4359   -0.9531   -6.5826 H         1 UNK         0.0541 
    132 H132       32.3377    0.8825   -5.1219 H         1 UNK         0.3459 
    133 H133       32.2129    2.4084   -5.9484 H         1 UNK         0.3459 
    134 H134       30.4522   -1.2708   -7.2025 H         1 UNK         0.0612 
    135 H135       31.0909   -1.0525   -5.6021 H         1 UNK         0.0612 
    136 H136       33.1530   -4.3940   -5.0518 H         1 UNK         0.0624 
    137 H137       33.5583   -2.7095   -5.1676 H         1 UNK         0.0624 
@<TRIPOS>BOND
     1    1    2 1    
     2    1   72 1    
     3    1   73 1    
     4    1   74 1    
     5    2    3 2    
     6    2    4 am   BACKBONE|DICT|INTERRES
     7    4    5 1    
     8    4   75 1    
     9    5    6 1    
    10    5   35 1    
    11    5   76 1    
    12    6    7 1    
    13    6   77 1    
    14    6   78 1    
    15    7    8 1    
    16    8    9 1    
    17    8   79 1    
    18    8   80 1    
    19    9   10 ar   
    20    9   14 ar   
    21   10   11 ar   
    22   10   81 1    
    23   11   12 ar   
    24   11   71 1    
    25   12   13 ar   
    26   12   82 1    
    27   13   14 ar   
    28   13   15 1    
    29   14   83 1    
    30   15   16 1    
    31   15   84 1    
    32   15   85 1    
    33   16   17 1    
    34   17   18 1    
    35   17   86 1    
    36   17   87 1    
    37   18   19 1    
    38   18   37 1    
    39   18   88 1    
    40   19   20 am   BACKBONE|DICT|INTERRES
    41   19   89 1    
    42   20   21 2    
    43   20   22 1    
    44   22   23 1    
    45   22   24 1    
    46   22   90 1    
    47   23   91 1    
    48   23   92 1    
    49   23   93 1    
    50   24   25 am   BACKBONE|DICT|INTERRES
    51   24   94 1    
    52   25   26 2    
    53   25   27 1    
    54   27   28 1    
    55   27   29 1    
    56   27   95 1    
    57   28   96 1    
    58   28   97 1    
    59   28   98 1    
    60   29   30 am   BACKBONE|DICT|INTERRES
    61   29   99 1    
    62   30   31 2    
    63   30   32 1    
    64   32   33 1    
    65   32   34 1    
    66   32  100 1    
    67   33  101 1    
    68   33  102 1    
    69   33  103 1    
    70   34   35 am   BACKBONE|DICT|INTERRES
    71   34  104 1    
    72   35   36 2    
    73   37   38 2    
    74   37   39 am   BACKBONE|DICT|INTERRES
    75   39   40 1    
    76   39  105 1    
    77   40   41 1    
    78   40   42 1    
    79   40  106 1    
    80   41  107 1    
    81   41  108 1    
    82   41  109 1    
    83   42   43 2    
    84   42   44 am   BACKBONE|DICT|INTERRES
    85   44   45 1    
    86   44  110 1    
    87   45   46 1    
    88   45   47 1    
    89   45  111 1    
    90   46  112 1    
    91   46  113 1    
    92   46  114 1    
    93   47   48 2    
    94   47   49 am   BACKBONE|DICT|INTERRES
    95   49   50 1    
    96   49  115 1    
    97   50   51 1    
    98   50   52 1    
    99   50  116 1    
   100   51  117 1    
   101   51  118 1    
   102   51  119 1    
   103   52   53 2    
   104   52   54 am   BACKBONE|DICT|INTERRES
   105   54   55 1    
   106   54  120 1    
   107   55   56 1    
   108   55   57 1    
   109   55  121 1    
   110   56  122 1    
   111   56  123 1    
   112   56  124 1    
   113   57   58 2    
   114   57   59 am   BACKBONE|DICT|INTERRES
   115   59   60 1    
   116   59  125 1    
   117   60   61 1    
   118   60   62 1    
   119   60  126 1    
   120   61  127 1    
   121   61  128 1    
   122   61  129 1    
   123   62   63 2    
   124   62   64 am   BACKBONE|DICT|INTERRES
   125   64   65 1    
   126   64  130 1    
   127   65   66 1    
   128   65   69 1    
   129   65  131 1    
   130   66   67 am   BACKBONE|DICT|INTERRES
   131   66   68 2    
   132   67  132 1    
   133   67  133 1    
   134   69   70 1    
   135   69  134 1    
   136   69  135 1    
   137   70   71 1    
   138   71  136 1    
   139   71  137 1    
@<TRIPOS>SUBSTRUCTURE
     1 UNK         1 GROUP             0       ****    0 ROOT    
