@<TRIPOS>MOLECULE
3R137
137   139    1
SMALL
USER_CHARGES


@<TRIPOS>ATOM
      1 CA         27.8669   -5.0816   -9.2588 C.3       0 UNK        -0.2020 
      2 C          27.4022   -5.3920   -7.8440 C.2       0 UNK         0.4855 
      3 O          26.6687   -6.3605   -7.6426 O.2       0 UNK        -0.5197 
      4 N          27.8374   -4.5931   -6.8618 N.am      1 UNK        -0.4892 
      5 CA         27.4711   -4.7475   -5.4511 C.3       1 UNK         0.0835 
      6 C6         28.5401   -4.1222   -4.5213 C.3       12 UNK        -0.0855 
      7 S7         28.4802   -4.8292   -2.8410 S.3       12 UNK        -0.2931 
      8 C8         30.1511   -4.4472   -2.2265 C.3       12 UNK         0.0378 
      9 C9         30.4079   -2.9505   -2.0965 C.ar      12 UNK        -0.0802 
     10 C10        31.5386   -2.3804   -2.6892 C.ar      12 UNK        -0.0944 
     11 C11        31.8163   -1.0195   -2.5297 C.ar      12 UNK        -0.0787 
     12 C12        30.9395   -0.2205   -1.7897 C.ar      12 UNK        -0.0862 
     13 C13        29.7952   -0.7752   -1.2044 C.ar      12 UNK        -0.0733 
     14 C14        29.5424   -2.1418   -1.3520 C.ar      12 UNK        -0.0832 
     15 C15        28.8390    0.0944   -0.3965 C.3       12 UNK         0.0240 
     16 S16        27.2548    0.3780   -1.2570 S.3       12 UNK        -0.2522 
     17 C17        27.8132    1.1856   -2.7923 C.3       12 UNK        -0.0967 
     18 CA         27.6062    0.2580   -4.0262 C.3       5 UNK         0.0660 
     19 N          26.1903    0.1319   -4.3938 N.am      5 UNK        -0.4015 
     20 C          25.4436    1.0751   -4.9948 C.2       4 UNK         0.4946 
     21 O          25.8682    2.1870   -5.3164 O.2       4 UNK        -0.5353 
     22 CA         23.9732    0.7355   -5.2957 C.3       4 UNK         0.0277 
     23 CB         23.8435    0.1247   -6.7000 C.3       4 UNK        -0.1981 
     24 N          23.3824   -0.1822   -4.3237 N.am      4 UNK        -0.4209 
     25 C          23.1601    0.0932   -3.0305 C.2       3 UNK         0.4942 
     26 O          23.3142    1.2088   -2.5325 O.2       3 UNK        -0.5208 
     27 CA         22.6917   -1.0721   -2.1352 C.3       3 UNK         0.0250 
     28 CB         21.2053   -0.9109   -1.7745 C.3       3 UNK        -0.1990 
     29 N          22.9008   -2.4059   -2.7154 N.am      3 UNK        -0.4232 
     30 C          24.0937   -2.9455   -3.0054 C.2       2 UNK         0.4993 
     31 O          25.1630   -2.3688   -2.7936 O.2       2 UNK        -0.5286 
     32 CA         24.0747   -4.3521   -3.6404 C.3       2 UNK         0.0209 
     33 CB         22.9732   -4.5122   -4.7141 C.3       2 UNK        -0.1931 
     34 N          25.3813   -4.7497   -4.1810 N.am      2 UNK        -0.4546 
     35 C          26.0660   -4.1689   -5.1782 C.2       1 UNK         0.5154 
     36 O          25.6520   -3.2140   -5.8420 O.2       1 UNK        -0.5181 
     37 C          28.4500    0.6440   -5.2623 C.2       5 UNK         0.5014 
     38 O          28.4140   -0.0744   -6.2654 O.2       5 UNK        -0.5248 
     39 N          29.1527    1.7836   -5.1973 N.am      6 UNK        -0.4434 
     40 CA         30.0058    2.3306   -6.2515 C.3       6 UNK         0.0363 
     41 CB         30.7009    3.5977   -5.7318 C.3       6 UNK        -0.1936 
     42 C          29.2885    2.6191   -7.5782 C.2       6 UNK         0.5081 
     43 O          29.9435    2.5686   -8.6177 O.2       6 UNK        -0.5248 
     44 N          27.9709    2.8686   -7.5465 N.am      7 UNK        -0.4718 
     45 CA         27.1593    3.0754   -8.7509 C.3       7 UNK         0.0273 
     46 CB         25.7878    3.6495   -8.3620 C.3       7 UNK        -0.1935 
     47 C          27.0011    1.8048   -9.6079 C.2       7 UNK         0.5018 
     48 O          26.7167    1.9268  -10.8001 O.2       7 UNK        -0.5186 
     49 N          27.1981    0.6254   -9.0016 N.am      8 UNK        -0.4240 
     50 CA         27.2024   -0.6680   -9.6832 C.3       8 UNK         0.0235 
     51 CB         26.2435   -1.6263   -8.9610 C.3       8 UNK        -0.2000 
     52 C          28.6170   -1.2615   -9.7443 C.2       8 UNK         0.4941 
     53 O          29.0087   -1.7697  -10.7946 O.2       8 UNK        -0.5273 
     54 N          29.3534   -1.2123   -8.6245 N.am      9 UNK        -0.4262 
     55 CA         30.6723   -1.8336   -8.4730 C.3       9 UNK         0.0264 
     56 CB         30.9538   -2.0431   -6.9763 C.3       9 UNK        -0.1955 
     57 C          31.8288   -1.0562   -9.1253 C.2       9 UNK         0.5031 
     58 O          32.8835   -1.6535   -9.3430 O.2       9 UNK        -0.5390 
     59 N          31.6415    0.2475   -9.3898 N.am      10 UNK        -0.4204 
     60 CA         32.6359    1.1936   -9.9231 C.3       10 UNK         0.0237 
     61 CB         33.0783    0.7965  -11.3484 C.3       10 UNK        -0.1985 
     62 C          33.8307    1.4515   -8.9780 C.2       10 UNK         0.4970 
     63 O          34.8757    1.9186   -9.4334 O.2       10 UNK        -0.4914 
     64 N          33.6553    1.1656   -7.6812 N.am      11 UNK        -0.4285 
     65 CA         34.6508    1.3510   -6.6136 C.3       11 UNK         0.1007 
     66 C          34.8260    2.8153   -6.1107 C.2       11 UNK         0.5703 
     67 N          34.1080    3.7962   -6.6440 N.am      11 UNK        -0.7361 
     68 O          35.6475    3.0709   -5.2333 O.2       11 UNK        -0.4986 
     69 C69        34.4332    0.3357   -5.4583 C.3       12 UNK        -0.0947 
     70 S70        32.7615    0.3722   -4.7259 S.3       12 UNK        -0.2240 
     71 C71        33.0841   -0.4271   -3.1276 C.3       12 UNK         0.0194 
     72 H72        28.5292   -4.2181   -9.2918 H         1 UNK         0.0906 
     73 H73        28.4071   -5.9340   -9.6697 H         1 UNK         0.0906 
     74 H74        27.0109   -4.8820   -9.9025 H         1 UNK         0.0906 
     75 H75        28.3837   -3.7757   -7.0870 H         1 UNK         0.3140 
     76 H76        27.4349   -5.8207   -5.2469 H         1 UNK         0.1085 
     77 H77        29.5361   -4.3242   -4.9182 H         1 UNK         0.0836 
     78 H78        28.4467   -3.0354   -4.4700 H         1 UNK         0.0836 
     79 H79        30.8859   -4.9165   -2.8827 H         1 UNK         0.0731 
     80 H80        30.2772   -4.9086   -1.2463 H         1 UNK         0.0731 
     81 H81        32.2181   -3.0001   -3.2585 H         1 UNK         0.1312 
     82 H82        31.1540    0.8324   -1.6672 H         1 UNK         0.1406 
     83 H83        28.6642   -2.5756   -0.8925 H         1 UNK         0.1631 
     84 H84        29.2952    1.0574   -0.1621 H         1 UNK         0.0717 
     85 H85        28.6372   -0.3868    0.5616 H         1 UNK         0.0717 
     86 H86        27.2690    2.1246   -2.9092 H         1 UNK         0.0934 
     87 H87        28.8594    1.4602   -2.6583 H         1 UNK         0.0934 
     88 H88        27.9434   -0.7439   -3.7564 H         1 UNK         0.0739 
     89 H89        25.7589   -0.7522   -4.1485 H         1 UNK         0.3093 
     90 H90        23.4075    1.6692   -5.2691 H         1 UNK         0.0818 
     91 H91        24.3016    0.7641   -7.4551 H         1 UNK         0.0819 
     92 H92        24.3327   -0.8484   -6.7574 H         1 UNK         0.0819 
     93 H93        22.7986   -0.0083   -6.9805 H         1 UNK         0.0819 
     94 H94        23.2172   -1.1270   -4.6377 H         1 UNK         0.3041 
     95 H95        23.2764   -1.0183   -1.2142 H         1 UNK         0.0784 
     96 H96        21.0190    0.0574   -1.3077 H         1 UNK         0.0793 
     97 H97        20.5665   -0.9751   -2.6564 H         1 UNK         0.0793 
     98 H98        20.8822   -1.6750   -1.0671 H         1 UNK         0.0793 
     99 H99        22.0684   -2.9432   -2.9119 H         1 UNK         0.3024 
    100 H100       23.8589   -5.0486   -2.8283 H         1 UNK         0.1171 
    101 H101       23.0378   -5.4854   -5.2010 H         1 UNK         0.0786 
    102 H102       21.9749   -4.4451   -4.2809 H         1 UNK         0.0786 
    103 H103       23.0463   -3.7500   -5.4908 H         1 UNK         0.0786 
    104 H104       25.8533   -5.4767   -3.6608 H         1 UNK         0.2977 
    105 H105       29.0854    2.3355   -4.3555 H         1 UNK         0.3127 
    106 H106       30.7700    1.5845   -6.4702 H         1 UNK         0.0770 
    107 H107       29.9809    4.3452   -5.3966 H         1 UNK         0.0814 
    108 H108       31.3054    4.0616   -6.5116 H         1 UNK         0.0814 
    109 H109       31.3679    3.3716   -4.8993 H         1 UNK         0.0814 
    110 H110       27.4791    2.8438   -6.6593 H         1 UNK         0.2983 
    111 H111       27.6686    3.8163   -9.3715 H         1 UNK         0.0947 
    112 H112       25.1962    3.8786   -9.2495 H         1 UNK         0.0806 
    113 H113       25.8902    4.5742   -7.7941 H         1 UNK         0.0806 
    114 H114       25.2098    2.9495   -7.7604 H         1 UNK         0.0806 
    115 H115       27.4473    0.6250   -8.0190 H         1 UNK         0.3000 
    116 H116       26.8510   -0.5603  -10.7117 H         1 UNK         0.0850 
    117 H117       26.2423   -2.6096   -9.4304 H         1 UNK         0.0810 
    118 H118       25.2195   -1.2561   -8.9979 H         1 UNK         0.0810 
    119 H119       26.5157   -1.7602   -7.9134 H         1 UNK         0.0810 
    120 H120       28.9585   -0.7893   -7.7841 H         1 UNK         0.3040 
    121 H121       30.6450   -2.8163   -8.9488 H         1 UNK         0.0766 
    122 H122       30.9401   -1.1008   -6.4306 H         1 UNK         0.0812 
    123 H123       31.9311   -2.5003   -6.8146 H         1 UNK         0.0812 
    124 H124       30.2127   -2.6960   -6.5208 H         1 UNK         0.0812 
    125 H125       30.7441    0.6637   -9.1664 H         1 UNK         0.3205 
    126 H126       32.1220    2.1515  -10.0076 H         1 UNK         0.0754 
    127 H127       33.6758    1.5852  -11.8072 H         1 UNK         0.0769 
    128 H128       32.2187    0.6260  -11.9967 H         1 UNK         0.0769 
    129 H129       33.6847   -0.1095  -11.3494 H         1 UNK         0.0769 
    130 H130       32.7692    0.7894   -7.3837 H         1 UNK         0.2981 
    131 H131       35.6209    1.1033   -7.0482 H         1 UNK         0.0541 
    132 H132       33.4586    3.6071   -7.3886 H         1 UNK         0.3459 
    133 H133       34.2432    4.7388   -6.3148 H         1 UNK         0.3459 
    134 H134       35.1756    0.4825   -4.6716 H         1 UNK         0.0612 
    135 H135       34.6009   -0.6752   -5.8332 H         1 UNK         0.0612 
    136 H136       33.8321   -1.2108   -3.2581 H         1 UNK         0.0624 
    137 H137       33.5192    0.3024   -2.4431 H         1 UNK         0.0624 
@<TRIPOS>BOND
     1    1    2 1    
     2    1   72 1    
     3    1   73 1    
     4    1   74 1    
     5    2    3 2    
     6    2    4 am   BACKBONE|DICT|INTERRES
     7    4    5 1    
     8    4   75 1    
     9    5    6 1    
    10    5   35 1    
    11    5   76 1    
    12    6    7 1    
    13    6   77 1    
    14    6   78 1    
    15    7    8 1    
    16    8    9 1    
    17    8   79 1    
    18    8   80 1    
    19    9   10 ar   
    20    9   14 ar   
    21   10   11 ar   
    22   10   81 1    
    23   11   12 ar   
    24   11   71 1    
    25   12   13 ar   
    26   12   82 1    
    27   13   14 ar   
    28   13   15 1    
    29   14   83 1    
    30   15   16 1    
    31   15   84 1    
    32   15   85 1    
    33   16   17 1    
    34   17   18 1    
    35   17   86 1    
    36   17   87 1    
    37   18   19 1    
    38   18   37 1    
    39   18   88 1    
    40   19   20 am   BACKBONE|DICT|INTERRES
    41   19   89 1    
    42   20   21 2    
    43   20   22 1    
    44   22   23 1    
    45   22   24 1    
    46   22   90 1    
    47   23   91 1    
    48   23   92 1    
    49   23   93 1    
    50   24   25 am   BACKBONE|DICT|INTERRES
    51   24   94 1    
    52   25   26 2    
    53   25   27 1    
    54   27   28 1    
    55   27   29 1    
    56   27   95 1    
    57   28   96 1    
    58   28   97 1    
    59   28   98 1    
    60   29   30 am   BACKBONE|DICT|INTERRES
    61   29   99 1    
    62   30   31 2    
    63   30   32 1    
    64   32   33 1    
    65   32   34 1    
    66   32  100 1    
    67   33  101 1    
    68   33  102 1    
    69   33  103 1    
    70   34   35 am   BACKBONE|DICT|INTERRES
    71   34  104 1    
    72   35   36 2    
    73   37   38 2    
    74   37   39 am   BACKBONE|DICT|INTERRES
    75   39   40 1    
    76   39  105 1    
    77   40   41 1    
    78   40   42 1    
    79   40  106 1    
    80   41  107 1    
    81   41  108 1    
    82   41  109 1    
    83   42   43 2    
    84   42   44 am   BACKBONE|DICT|INTERRES
    85   44   45 1    
    86   44  110 1    
    87   45   46 1    
    88   45   47 1    
    89   45  111 1    
    90   46  112 1    
    91   46  113 1    
    92   46  114 1    
    93   47   48 2    
    94   47   49 am   BACKBONE|DICT|INTERRES
    95   49   50 1    
    96   49  115 1    
    97   50   51 1    
    98   50   52 1    
    99   50  116 1    
   100   51  117 1    
   101   51  118 1    
   102   51  119 1    
   103   52   53 2    
   104   52   54 am   BACKBONE|DICT|INTERRES
   105   54   55 1    
   106   54  120 1    
   107   55   56 1    
   108   55   57 1    
   109   55  121 1    
   110   56  122 1    
   111   56  123 1    
   112   56  124 1    
   113   57   58 2    
   114   57   59 am   BACKBONE|DICT|INTERRES
   115   59   60 1    
   116   59  125 1    
   117   60   61 1    
   118   60   62 1    
   119   60  126 1    
   120   61  127 1    
   121   61  128 1    
   122   61  129 1    
   123   62   63 2    
   124   62   64 am   BACKBONE|DICT|INTERRES
   125   64   65 1    
   126   64  130 1    
   127   65   66 1    
   128   65   69 1    
   129   65  131 1    
   130   66   67 am   BACKBONE|DICT|INTERRES
   131   66   68 2    
   132   67  132 1    
   133   67  133 1    
   134   69   70 1    
   135   69  134 1    
   136   69  135 1    
   137   70   71 1    
   138   71  136 1    
   139   71  137 1    
@<TRIPOS>SUBSTRUCTURE
     1 UNK         1 GROUP             0       ****    0 ROOT    
