@<TRIPOS>MOLECULE
3R137
137   139    1
SMALL
USER_CHARGES


@<TRIPOS>ATOM
      1 CA         24.0823   -4.0404   -2.9111 C.3       0 UNK        -0.2020 
      2 C          24.7403   -3.3515   -1.7267 C.2       0 UNK         0.4855 
      3 O          24.0916   -3.1345   -0.7028 O.2       0 UNK        -0.5197 
      4 N          26.0206   -2.9847   -1.8595 N.am      1 UNK        -0.4892 
      5 CA         26.8538   -2.3564   -0.8232 C.3       1 UNK         0.0835 
      6 C6         28.3602   -2.6276   -1.0685 C.3       12 UNK        -0.0855 
      7 S7         28.7489   -4.4088   -1.0600 S.3       12 UNK        -0.2931 
      8 C8         30.5471   -4.3729   -1.3376 C.3       12 UNK         0.0378 
      9 C9         30.9029   -3.9059   -2.7424 C.ar      12 UNK        -0.0802 
     10 C10        31.5316   -2.6719   -2.9407 C.ar      12 UNK        -0.0944 
     11 C11        31.8970   -2.2650   -4.2270 C.ar      12 UNK        -0.0787 
     12 C12        31.6220   -3.0943   -5.3161 C.ar      12 UNK        -0.0862 
     13 C13        30.9826   -4.3235   -5.1351 C.ar      12 UNK        -0.0733 
     14 C14        30.6291   -4.7251   -3.8430 C.ar      12 UNK        -0.0832 
     15 C15        30.6962   -5.2311   -6.3266 C.3       12 UNK         0.0240 
     16 S16        29.8212   -4.3843   -7.6846 S.3       12 UNK        -0.2522 
     17 C17        28.2675   -3.8966   -6.8716 C.3       12 UNK        -0.0967 
     18 CA         27.6166   -2.6480   -7.5176 C.3       5 UNK         0.0660 
     19 N          26.1704   -2.6572   -7.2746 N.am      5 UNK        -0.4015 
     20 C          25.2863   -1.7681   -7.7408 C.2       4 UNK         0.4946 
     21 O          25.5850   -0.8303   -8.4786 O.2       4 UNK        -0.5353 
     22 CA         23.8357   -1.8940   -7.2471 C.3       4 UNK         0.0277 
     23 CB         23.4617   -3.3092   -6.7525 C.3       4 UNK        -0.1981 
     24 N          23.5278   -0.8885   -6.2218 N.am      4 UNK        -0.4209 
     25 C          24.1536   -0.6930   -5.0505 C.2       3 UNK         0.4942 
     26 O          25.1321   -1.3463   -4.6733 O.2       3 UNK        -0.5208 
     27 CA         23.6017    0.4319   -4.1599 C.3       3 UNK         0.0250 
     28 CB         22.0577    0.4583   -4.1207 C.3       3 UNK        -0.1990 
     29 N          24.1316    0.2782   -2.8082 N.am      3 UNK        -0.4232 
     30 C          24.2108    1.2377   -1.8769 C.2       2 UNK         0.4993 
     31 O          23.8724    2.4055   -2.0738 O.2       2 UNK        -0.5286 
     32 CA         24.7271    0.8365   -0.4816 C.3       2 UNK         0.0209 
     33 CB         23.5965    0.9323    0.5573 C.3       2 UNK        -0.1931 
     34 N          25.2687   -0.5241   -0.4578 N.am      2 UNK        -0.4546 
     35 C          26.5433   -0.8477   -0.7000 C.2       1 UNK         0.5154 
     36 O          27.4337   -0.0110   -0.8547 O.2       1 UNK        -0.5181 
     37 C          28.2952   -1.3308   -7.0634 C.2       5 UNK         0.5014 
     38 O          29.2201   -0.8530   -7.7281 O.2       5 UNK        -0.5248 
     39 N          27.7868   -0.7383   -5.9713 N.am      6 UNK        -0.4434 
     40 CA         28.2299    0.5570   -5.4555 C.3       6 UNK         0.0363 
     41 CB         27.9606    0.6193   -3.9471 C.3       6 UNK        -0.1936 
     42 C          27.5705    1.7498   -6.1705 C.2       6 UNK         0.5081 
     43 O          28.1590    2.8295   -6.1769 O.2       6 UNK        -0.5248 
     44 N          26.3907    1.5505   -6.7799 N.am      7 UNK        -0.4718 
     45 CA         25.7152    2.5606   -7.6065 C.3       7 UNK         0.0273 
     46 CB         24.2121    2.2559   -7.7137 C.3       7 UNK        -0.1935 
     47 C          26.3551    2.6546   -8.9999 C.2       7 UNK         0.5018 
     48 O          26.5351    3.7580   -9.5151 O.2       7 UNK        -0.5186 
     49 N          26.7415    1.4951   -9.5526 N.am      8 UNK        -0.4240 
     50 CA         27.5970    1.3628  -10.7351 C.3       8 UNK         0.0235 
     51 CB         27.6066   -0.1090  -11.1797 C.3       8 UNK        -0.2000 
     52 C          29.0371    1.8546  -10.4901 C.2       8 UNK         0.4941 
     53 O          29.7295    2.1840  -11.4535 O.2       8 UNK        -0.5273 
     54 N          29.4435    1.8973   -9.2115 N.am      9 UNK        -0.4262 
     55 CA         30.7290    2.3516   -8.6794 C.3       9 UNK         0.0264 
     56 CB         30.9203    3.8641   -8.9192 C.3       9 UNK        -0.1955 
     57 C          31.9024    1.5020   -9.1907 C.2       9 UNK         0.5031 
     58 O          32.9240    2.0480   -9.6133 O.2       9 UNK        -0.5390 
     59 N          31.7474    0.1709   -9.1223 N.am      10 UNK        -0.4204 
     60 CA         32.7426   -0.8038   -9.5907 C.3       10 UNK         0.0237 
     61 CB         32.1343   -2.2118   -9.5437 C.3       10 UNK        -0.1985 
     62 C          34.0887   -0.7585   -8.8378 C.2       10 UNK         0.4970 
     63 O          35.0933   -1.2215   -9.3794 O.2       10 UNK        -0.4914 
     64 N          34.0925   -0.1818   -7.6291 N.am      11 UNK        -0.4285 
     65 CA         35.2975    0.1527   -6.8547 C.3       11 UNK         0.1007 
     66 C          36.0878    1.3797   -7.4013 C.2       11 UNK         0.5703 
     67 N          35.5697    2.1557   -8.3475 N.am      11 UNK        -0.7361 
     68 O          37.2079    1.6277   -6.9608 O.2       11 UNK        -0.4986 
     69 C69        34.9739    0.3261   -5.3461 C.3       12 UNK        -0.0947 
     70 S70        34.4078   -1.2287   -4.5845 S.3       12 UNK        -0.2240 
     71 C71        32.6167   -0.9472   -4.4534 C.3       12 UNK         0.0194 
     72 H72        24.8075   -4.2872   -3.6857 H         1 UNK         0.0906 
     73 H73        23.3212   -3.3935   -3.3464 H         1 UNK         0.0906 
     74 H74        23.6034   -4.9649   -2.5904 H         1 UNK         0.0906 
     75 H75        26.4913   -3.1594   -2.7359 H         1 UNK         0.3140 
     76 H76        26.5958   -2.8004    0.1413 H         1 UNK         0.1085 
     77 H77        28.9675   -2.1467   -0.2989 H         1 UNK         0.0836 
     78 H78        28.6758   -2.2023   -2.0229 H         1 UNK         0.0836 
     79 H79        31.0172   -3.7400   -0.5831 H         1 UNK         0.0731 
     80 H80        30.9466   -5.3764   -1.1840 H         1 UNK         0.0731 
     81 H81        31.7536   -2.0364   -2.0942 H         1 UNK         0.1312 
     82 H82        31.9162   -2.7835   -6.3073 H         1 UNK         0.1406 
     83 H83        30.1439   -5.6792   -3.6866 H         1 UNK         0.1631 
     84 H84        30.1088   -6.0989   -6.0227 H         1 UNK         0.0717 
     85 H85        31.6425   -5.6172   -6.7075 H         1 UNK         0.0717 
     86 H86        27.6027   -4.7581   -6.9559 H         1 UNK         0.0934 
     87 H87        28.4195   -3.7464   -5.8012 H         1 UNK         0.0934 
     88 H88        27.7400   -2.7112   -8.6010 H         1 UNK         0.0739 
     89 H89        25.8274   -3.3649   -6.6427 H         1 UNK         0.3093 
     90 H90        23.2032   -1.6691   -8.1075 H         1 UNK         0.0818 
     91 H91        23.6632   -4.0604   -7.5177 H         1 UNK         0.0819 
     92 H92        24.0054   -3.5958   -5.8536 H         1 UNK         0.0819 
     93 H93        22.3982   -3.3701   -6.5209 H         1 UNK         0.0819 
     94 H94        22.7483   -0.2844   -6.4409 H         1 UNK         0.3041 
     95 H95        23.9706    1.3754   -4.5659 H         1 UNK         0.0784 
     96 H96        21.6312    0.6872   -5.0976 H         1 UNK         0.0793 
     97 H97        21.6485   -0.4993   -3.7953 H         1 UNK         0.0793 
     98 H98        21.6888    1.2230   -3.4369 H         1 UNK         0.0793 
     99 H99        24.5129   -0.6366   -2.6075 H         1 UNK         0.3024 
    100 H100       25.5081    1.5497   -0.2074 H         1 UNK         0.1171 
    101 H101       23.9576    0.6957    1.5584 H         1 UNK         0.0786 
    102 H102       23.1823    1.9409    0.5943 H         1 UNK         0.0786 
    103 H103       22.7768    0.2508    0.3260 H         1 UNK         0.0786 
    104 H104       24.6060   -1.2893   -0.3582 H         1 UNK         0.2977 
    105 H105       26.9998   -1.1697   -5.4955 H         1 UNK         0.3127 
    106 H106       29.3090    0.6430   -5.6030 H         1 UNK         0.0770 
    107 H107       28.3051    1.5641   -3.5247 H         1 UNK         0.0814 
    108 H108       26.8988    0.5303   -3.7184 H         1 UNK         0.0814 
    109 H109       28.4863   -0.1774   -3.4216 H         1 UNK         0.0814 
    110 H110       26.0104    0.6146   -6.8063 H         1 UNK         0.2983 
    111 H111       25.8249    3.5361   -7.1266 H         1 UNK         0.0947 
    112 H112       24.0206    1.2877   -8.1757 H         1 UNK         0.0806 
    113 H113       23.7100    3.0073   -8.3247 H         1 UNK         0.0806 
    114 H114       23.7317    2.2700   -6.7368 H         1 UNK         0.0806 
    115 H115       26.4541    0.6282   -9.0996 H         1 UNK         0.3000 
    116 H116       27.1689    1.9694  -11.5358 H         1 UNK         0.0850 
    117 H117       28.2053   -0.2414  -12.0819 H         1 UNK         0.0810 
    118 H118       26.5998   -0.4629  -11.4025 H         1 UNK         0.0810 
    119 H119       28.0263   -0.7587  -10.4103 H         1 UNK         0.0810 
    120 H120       28.7916    1.5535   -8.5211 H         1 UNK         0.3040 
    121 H121       30.6855    2.1945   -7.6006 H         1 UNK         0.0766 
    122 H122       31.0146    4.0985   -9.9799 H         1 UNK         0.0812 
    123 H123       31.8225    4.2267   -8.4250 H         1 UNK         0.0812 
    124 H124       30.0811    4.4354   -8.5219 H         1 UNK         0.0812 
    125 H125       30.8786   -0.2004   -8.7447 H         1 UNK         0.3205 
    126 H126       32.9585   -0.5669  -10.6346 H         1 UNK         0.0754 
    127 H127       32.8327   -2.9568   -9.9272 H         1 UNK         0.0769 
    128 H128       31.2275   -2.2758  -10.1457 H         1 UNK         0.0769 
    129 H129       31.8789   -2.4970   -8.5257 H         1 UNK         0.0769 
    130 H130       33.2220    0.1762   -7.2710 H         1 UNK         0.2981 
    131 H131       35.9842   -0.6913   -6.9440 H         1 UNK         0.0541 
    132 H132       34.6486    1.9814   -8.7384 H         1 UNK         0.3459 
    133 H133       36.1087    2.9376   -8.6830 H         1 UNK         0.3459 
    134 H134       34.2321    1.1120   -5.1930 H         1 UNK         0.0612 
    135 H135       35.8631    0.6380   -4.7950 H         1 UNK         0.0612 
    136 H136       32.4158   -0.2488   -3.6395 H         1 UNK         0.0624 
    137 H137       32.2423   -0.4809   -5.3657 H         1 UNK         0.0624 
@<TRIPOS>BOND
     1    1    2 1    
     2    1   72 1    
     3    1   73 1    
     4    1   74 1    
     5    2    3 2    
     6    2    4 am   BACKBONE|DICT|INTERRES
     7    4    5 1    
     8    4   75 1    
     9    5    6 1    
    10    5   35 1    
    11    5   76 1    
    12    6    7 1    
    13    6   77 1    
    14    6   78 1    
    15    7    8 1    
    16    8    9 1    
    17    8   79 1    
    18    8   80 1    
    19    9   10 ar   
    20    9   14 ar   
    21   10   11 ar   
    22   10   81 1    
    23   11   12 ar   
    24   11   71 1    
    25   12   13 ar   
    26   12   82 1    
    27   13   14 ar   
    28   13   15 1    
    29   14   83 1    
    30   15   16 1    
    31   15   84 1    
    32   15   85 1    
    33   16   17 1    
    34   17   18 1    
    35   17   86 1    
    36   17   87 1    
    37   18   19 1    
    38   18   37 1    
    39   18   88 1    
    40   19   20 am   BACKBONE|DICT|INTERRES
    41   19   89 1    
    42   20   21 2    
    43   20   22 1    
    44   22   23 1    
    45   22   24 1    
    46   22   90 1    
    47   23   91 1    
    48   23   92 1    
    49   23   93 1    
    50   24   25 am   BACKBONE|DICT|INTERRES
    51   24   94 1    
    52   25   26 2    
    53   25   27 1    
    54   27   28 1    
    55   27   29 1    
    56   27   95 1    
    57   28   96 1    
    58   28   97 1    
    59   28   98 1    
    60   29   30 am   BACKBONE|DICT|INTERRES
    61   29   99 1    
    62   30   31 2    
    63   30   32 1    
    64   32   33 1    
    65   32   34 1    
    66   32  100 1    
    67   33  101 1    
    68   33  102 1    
    69   33  103 1    
    70   34   35 am   BACKBONE|DICT|INTERRES
    71   34  104 1    
    72   35   36 2    
    73   37   38 2    
    74   37   39 am   BACKBONE|DICT|INTERRES
    75   39   40 1    
    76   39  105 1    
    77   40   41 1    
    78   40   42 1    
    79   40  106 1    
    80   41  107 1    
    81   41  108 1    
    82   41  109 1    
    83   42   43 2    
    84   42   44 am   BACKBONE|DICT|INTERRES
    85   44   45 1    
    86   44  110 1    
    87   45   46 1    
    88   45   47 1    
    89   45  111 1    
    90   46  112 1    
    91   46  113 1    
    92   46  114 1    
    93   47   48 2    
    94   47   49 am   BACKBONE|DICT|INTERRES
    95   49   50 1    
    96   49  115 1    
    97   50   51 1    
    98   50   52 1    
    99   50  116 1    
   100   51  117 1    
   101   51  118 1    
   102   51  119 1    
   103   52   53 2    
   104   52   54 am   BACKBONE|DICT|INTERRES
   105   54   55 1    
   106   54  120 1    
   107   55   56 1    
   108   55   57 1    
   109   55  121 1    
   110   56  122 1    
   111   56  123 1    
   112   56  124 1    
   113   57   58 2    
   114   57   59 am   BACKBONE|DICT|INTERRES
   115   59   60 1    
   116   59  125 1    
   117   60   61 1    
   118   60   62 1    
   119   60  126 1    
   120   61  127 1    
   121   61  128 1    
   122   61  129 1    
   123   62   63 2    
   124   62   64 am   BACKBONE|DICT|INTERRES
   125   64   65 1    
   126   64  130 1    
   127   65   66 1    
   128   65   69 1    
   129   65  131 1    
   130   66   67 am   BACKBONE|DICT|INTERRES
   131   66   68 2    
   132   67  132 1    
   133   67  133 1    
   134   69   70 1    
   135   69  134 1    
   136   69  135 1    
   137   70   71 1    
   138   71  136 1    
   139   71  137 1    
@<TRIPOS>SUBSTRUCTURE
     1 UNK         1 GROUP             0       ****    0 ROOT    
