@<TRIPOS>MOLECULE
3R137
137   139    1
SMALL
USER_CHARGES


@<TRIPOS>ATOM
      1 CA         27.0347   -4.1795   -8.1003 C.3       0 UNK        -0.2020 
      2 C          26.7024   -4.4984   -6.6515 C.2       0 UNK         0.4855 
      3 O          25.6688   -5.1116   -6.3825 O.2       0 UNK        -0.5197 
      4 N          27.5729   -4.0896   -5.7179 N.am      1 UNK        -0.4892 
      5 CA         27.4506   -4.3235   -4.2752 C.3       1 UNK         0.0835 
      6 C6         28.6418   -3.7433   -3.4828 C.3       12 UNK        -0.0855 
      7 S7         30.2742   -4.3847   -3.9737 S.3       12 UNK        -0.2931 
      8 C8         31.2560   -3.9372   -2.5006 C.3       12 UNK         0.0378 
      9 C9         31.2492   -2.4339   -2.2499 C.ar      12 UNK        -0.0802 
     10 C10        32.1843   -1.6112   -2.8833 C.ar      12 UNK        -0.0944 
     11 C11        32.1580   -0.2255   -2.6937 C.ar      12 UNK        -0.0787 
     12 C12        31.1855    0.3330   -1.8570 C.ar      12 UNK        -0.0862 
     13 C13        30.2493   -0.4800   -1.2086 C.ar      12 UNK        -0.0733 
     14 C14        30.2988   -1.8633   -1.3960 C.ar      12 UNK        -0.0832 
     15 C15        29.1912    0.1300   -0.2955 C.3       12 UNK         0.0240 
     16 S16        27.5314    0.1548   -1.0586 S.3       12 UNK        -0.2522 
     17 C17        27.7972    1.2455   -2.4955 C.3       12 UNK        -0.0967 
     18 CA         27.6132    0.4616   -3.8295 C.3       5 UNK         0.0660 
     19 N          26.1990    0.2479   -4.1804 N.am      5 UNK        -0.4015 
     20 C          25.3607    1.2014   -4.6212 C.2       4 UNK         0.4946 
     21 O          25.7002    2.3834   -4.7204 O.2       4 UNK        -0.5353 
     22 CA         23.9258    0.8196   -5.0428 C.3       4 UNK         0.0277 
     23 CB         23.4744    1.6765   -6.2522 C.3       4 UNK        -0.1981 
     24 N          23.7306   -0.6150   -5.3064 N.am      4 UNK        -0.4209 
     25 C          22.5264   -1.1906   -5.4701 C.2       3 UNK         0.4942 
     26 O          21.4569   -0.5835   -5.3950 O.2       3 UNK        -0.5208 
     27 CA         22.4912   -2.7044   -5.7513 C.3       3 UNK         0.0250 
     28 CB         23.0125   -3.0164   -7.1638 C.3       3 UNK        -0.1990 
     29 N          23.2362   -3.4872   -4.7667 N.am      3 UNK        -0.4232 
     30 C          22.9932   -3.5022   -3.4467 C.2       2 UNK         0.4993 
     31 O          22.0210   -2.9550   -2.9248 O.2       2 UNK        -0.5286 
     32 CA         23.9987   -4.2385   -2.5384 C.3       2 UNK         0.0209 
     33 CB         23.3669   -5.5164   -1.9603 C.3       2 UNK        -0.1931 
     34 N          25.2817   -4.5863   -3.1621 N.am      2 UNK        -0.4546 
     35 C          26.1441   -3.7262   -3.7203 C.2       1 UNK         0.5154 
     36 O          25.9381   -2.5139   -3.8284 O.2       1 UNK        -0.5181 
     37 C          28.3944    1.0232   -5.0398 C.2       5 UNK         0.5014 
     38 O          28.2861    0.4522   -6.1267 O.2       5 UNK        -0.5248 
     39 N          29.1355    2.1259   -4.8638 N.am      6 UNK        -0.4434 
     40 CA         29.9762    2.7612   -5.8843 C.3       6 UNK         0.0363 
     41 CB         30.8551    3.8277   -5.2098 C.3       6 UNK        -0.1936 
     42 C          29.2119    3.3616   -7.0797 C.2       6 UNK         0.5081 
     43 O          29.8406    3.6922   -8.0851 O.2       6 UNK        -0.5248 
     44 N          27.8829    3.4971   -6.9709 N.am      7 UNK        -0.4718 
     45 CA         27.0150    3.8751   -8.0879 C.3       7 UNK         0.0273 
     46 CB         25.7541    4.5617   -7.5413 C.3       7 UNK        -0.1935 
     47 C          26.6553    2.6793   -8.9922 C.2       7 UNK         0.5018 
     48 O          26.1562    2.9075  -10.0950 O.2       7 UNK        -0.5186 
     49 N          26.9041    1.4445   -8.5295 N.am      8 UNK        -0.4240 
     50 CA         26.6663    0.2074   -9.2748 C.3       8 UNK         0.0235 
     51 CB         25.7216   -0.7063   -8.4752 C.3       8 UNK        -0.2000 
     52 C          27.9833   -0.5174   -9.5853 C.2       8 UNK         0.4941 
     53 O          28.2004   -0.9040  -10.7343 O.2       8 UNK        -0.5273 
     54 N          28.8294   -0.7091   -8.5652 N.am      9 UNK        -0.4262 
     55 CA         30.1191   -1.3868   -8.6732 C.3       9 UNK         0.0264 
     56 CB         30.5068   -1.9558   -7.2965 C.3       9 UNK        -0.1955 
     57 C          31.2050   -0.4174   -9.1518 C.2       9 UNK         0.5031 
     58 O          31.2671    0.7156   -8.6722 O.2       9 UNK        -0.5390 
     59 N          32.1113   -0.9061  -10.0067 N.am      10 UNK        -0.4204 
     60 CA         33.3349   -0.2076  -10.4172 C.3       10 UNK         0.0237 
     61 CB         33.7396   -0.6876  -11.8242 C.3       10 UNK        -0.1985 
     62 C          34.4540   -0.4057   -9.3729 C.2       10 UNK         0.4970 
     63 O          35.5577   -0.8307   -9.7187 O.2       10 UNK        -0.4914 
     64 N          34.1277   -0.1375   -8.1040 N.am      11 UNK        -0.4285 
     65 CA         34.9821   -0.3675   -6.9312 C.3       11 UNK         0.1007 
     66 C          36.0541    0.7303   -6.6671 C.2       11 UNK         0.5703 
     67 N          36.0711    1.8357   -7.4029 N.am      11 UNK        -0.7361 
     68 O          36.8980    0.5661   -5.7891 O.2       11 UNK        -0.4986 
     69 C69        34.1221   -0.6908   -5.6808 C.3       12 UNK        -0.0947 
     70 S70        33.0069    0.6706   -5.1867 S.3       12 UNK        -0.2240 
     71 C71        33.1855    0.6710   -3.3746 C.3       12 UNK         0.0194 
     72 H72        26.1232   -3.9837   -8.6638 H         1 UNK         0.0906 
     73 H73        27.6782   -3.3055   -8.1830 H         1 UNK         0.0906 
     74 H74        27.5420   -5.0256   -8.5627 H         1 UNK         0.0906 
     75 H75        28.4067   -3.5942   -5.9952 H         1 UNK         0.3140 
     76 H76        27.4363   -5.4051   -4.1246 H         1 UNK         0.1085 
     77 H77        28.6744   -2.6592   -3.5875 H         1 UNK         0.0836 
     78 H78        28.5047   -3.9494   -2.4195 H         1 UNK         0.0836 
     79 H79        30.8696   -4.4700   -1.6302 H         1 UNK         0.0731 
     80 H80        32.2806   -4.2857   -2.6390 H         1 UNK         0.0731 
     81 H81        32.9256   -2.0518   -3.5342 H         1 UNK         0.1312 
     82 H82        31.1615    1.4033   -1.7048 H         1 UNK         0.1406 
     83 H83        29.5776   -2.4917   -0.8917 H         1 UNK         0.1631 
     84 H84        29.4685    1.1450   -0.0066 H         1 UNK         0.0717 
     85 H85        29.1417   -0.4437    0.6311 H         1 UNK         0.0717 
     86 H86        27.1086    2.0895   -2.4322 H         1 UNK         0.0934 
     87 H87        28.7932    1.6727   -2.3946 H         1 UNK         0.0934 
     88 H88        28.0385   -0.5307   -3.6892 H         1 UNK         0.0739 
     89 H89        25.8903   -0.7162   -4.0782 H         1 UNK         0.3093 
     90 H90        23.2902    1.0761   -4.1929 H         1 UNK         0.0818 
     91 H91        22.4850    1.4108   -6.6204 H         1 UNK         0.0819 
     92 H92        23.4197    2.7295   -5.9753 H         1 UNK         0.0819 
     93 H93        24.1712    1.5953   -7.0856 H         1 UNK         0.0819 
     94 H94        24.5562   -1.1969   -5.3437 H         1 UNK         0.3041 
     95 H95        21.4484   -3.0243   -5.6993 H         1 UNK         0.0784 
     96 H96        22.4815   -2.4320   -7.9165 H         1 UNK         0.0793 
     97 H97        24.0740   -2.7912   -7.2621 H         1 UNK         0.0793 
     98 H98        22.8734   -4.0687   -7.4127 H         1 UNK         0.0793 
     99 H99        24.0468   -3.9905   -5.1054 H         1 UNK         0.3024 
    100 H100       24.2176   -3.5594   -1.7113 H         1 UNK         0.1171 
    101 H101       22.4270   -5.2950   -1.4523 H         1 UNK         0.0786 
    102 H102       24.0220   -5.9888   -1.2280 H         1 UNK         0.0786 
    103 H103       23.1506   -6.2469   -2.7409 H         1 UNK         0.0786 
    104 H104       25.5212   -5.5677   -3.1555 H         1 UNK         0.2977 
    105 H105       29.1318    2.5681   -3.9573 H         1 UNK         0.3127 
    106 H106       30.6282    1.9887   -6.2958 H         1 UNK         0.0770 
    107 H107       30.2562    4.6281   -4.7739 H         1 UNK         0.0814 
    108 H108       31.5354    4.2839   -5.9304 H         1 UNK         0.0814 
    109 H109       31.4699    3.3953   -4.4204 H         1 UNK         0.0814 
    110 H110       27.4263    3.2145   -6.1116 H         1 UNK         0.2983 
    111 H111       27.5360    4.6005   -8.7171 H         1 UNK         0.0947 
    112 H112       25.0764    4.8421   -8.3488 H         1 UNK         0.0806 
    113 H113       26.0050    5.4731   -6.9985 H         1 UNK         0.0806 
    114 H114       25.2044    3.9127   -6.8631 H         1 UNK         0.0806 
    115 H115       27.3583    1.3452   -7.6271 H         1 UNK         0.3000 
    116 H116       26.1858    0.4239  -10.2314 H         1 UNK         0.0850 
    117 H117       25.5667   -1.6507   -8.9970 H         1 UNK         0.0810 
    118 H118       26.1142   -0.9346   -7.4835 H         1 UNK         0.0810 
    119 H119       24.7399   -0.2509   -8.3536 H         1 UNK         0.0810 
    120 H120       28.6133   -0.3053   -7.6536 H         1 UNK         0.3040 
    121 H121       30.0319   -2.2144   -9.3807 H         1 UNK         0.0766 
    122 H122       29.7723   -2.6741   -6.9391 H         1 UNK         0.0812 
    123 H123       30.5976   -1.1697   -6.5446 H         1 UNK         0.0812 
    124 H124       31.4663   -2.4727   -7.3405 H         1 UNK         0.0812 
    125 H125       32.0168   -1.8622  -10.3197 H         1 UNK         0.3205 
    126 H126       33.1362    0.8647  -10.4779 H         1 UNK         0.0754 
    127 H127       34.6217   -0.1541  -12.1810 H         1 UNK         0.0769 
    128 H128       32.9431   -0.5104  -12.5472 H         1 UNK         0.0769 
    129 H129       33.9742   -1.7528  -11.8375 H         1 UNK         0.0769 
    130 H130       33.2075    0.2439   -7.9149 H         1 UNK         0.2981 
    131 H131       35.5611   -1.2697   -7.1372 H         1 UNK         0.0541 
    132 H132       35.3825    1.9785   -8.1236 H         1 UNK         0.3459 
    133 H133       36.7740    2.5359   -7.2272 H         1 UNK         0.3459 
    134 H134       34.7681   -0.9698   -4.8473 H         1 UNK         0.0612 
    135 H135       33.5054   -1.5685   -5.8796 H         1 UNK         0.0612 
    136 H136       33.0753    1.7001   -3.0300 H         1 UNK         0.0624 
    137 H137       34.1925    0.3670   -3.0871 H         1 UNK         0.0624 
@<TRIPOS>BOND
     1    1    2 1    
     2    1   72 1    
     3    1   73 1    
     4    1   74 1    
     5    2    3 2    
     6    2    4 am   BACKBONE|DICT|INTERRES
     7    4    5 1    
     8    4   75 1    
     9    5    6 1    
    10    5   35 1    
    11    5   76 1    
    12    6    7 1    
    13    6   77 1    
    14    6   78 1    
    15    7    8 1    
    16    8    9 1    
    17    8   79 1    
    18    8   80 1    
    19    9   10 ar   
    20    9   14 ar   
    21   10   11 ar   
    22   10   81 1    
    23   11   12 ar   
    24   11   71 1    
    25   12   13 ar   
    26   12   82 1    
    27   13   14 ar   
    28   13   15 1    
    29   14   83 1    
    30   15   16 1    
    31   15   84 1    
    32   15   85 1    
    33   16   17 1    
    34   17   18 1    
    35   17   86 1    
    36   17   87 1    
    37   18   19 1    
    38   18   37 1    
    39   18   88 1    
    40   19   20 am   BACKBONE|DICT|INTERRES
    41   19   89 1    
    42   20   21 2    
    43   20   22 1    
    44   22   23 1    
    45   22   24 1    
    46   22   90 1    
    47   23   91 1    
    48   23   92 1    
    49   23   93 1    
    50   24   25 am   BACKBONE|DICT|INTERRES
    51   24   94 1    
    52   25   26 2    
    53   25   27 1    
    54   27   28 1    
    55   27   29 1    
    56   27   95 1    
    57   28   96 1    
    58   28   97 1    
    59   28   98 1    
    60   29   30 am   BACKBONE|DICT|INTERRES
    61   29   99 1    
    62   30   31 2    
    63   30   32 1    
    64   32   33 1    
    65   32   34 1    
    66   32  100 1    
    67   33  101 1    
    68   33  102 1    
    69   33  103 1    
    70   34   35 am   BACKBONE|DICT|INTERRES
    71   34  104 1    
    72   35   36 2    
    73   37   38 2    
    74   37   39 am   BACKBONE|DICT|INTERRES
    75   39   40 1    
    76   39  105 1    
    77   40   41 1    
    78   40   42 1    
    79   40  106 1    
    80   41  107 1    
    81   41  108 1    
    82   41  109 1    
    83   42   43 2    
    84   42   44 am   BACKBONE|DICT|INTERRES
    85   44   45 1    
    86   44  110 1    
    87   45   46 1    
    88   45   47 1    
    89   45  111 1    
    90   46  112 1    
    91   46  113 1    
    92   46  114 1    
    93   47   48 2    
    94   47   49 am   BACKBONE|DICT|INTERRES
    95   49   50 1    
    96   49  115 1    
    97   50   51 1    
    98   50   52 1    
    99   50  116 1    
   100   51  117 1    
   101   51  118 1    
   102   51  119 1    
   103   52   53 2    
   104   52   54 am   BACKBONE|DICT|INTERRES
   105   54   55 1    
   106   54  120 1    
   107   55   56 1    
   108   55   57 1    
   109   55  121 1    
   110   56  122 1    
   111   56  123 1    
   112   56  124 1    
   113   57   58 2    
   114   57   59 am   BACKBONE|DICT|INTERRES
   115   59   60 1    
   116   59  125 1    
   117   60   61 1    
   118   60   62 1    
   119   60  126 1    
   120   61  127 1    
   121   61  128 1    
   122   61  129 1    
   123   62   63 2    
   124   62   64 am   BACKBONE|DICT|INTERRES
   125   64   65 1    
   126   64  130 1    
   127   65   66 1    
   128   65   69 1    
   129   65  131 1    
   130   66   67 am   BACKBONE|DICT|INTERRES
   131   66   68 2    
   132   67  132 1    
   133   67  133 1    
   134   69   70 1    
   135   69  134 1    
   136   69  135 1    
   137   70   71 1    
   138   71  136 1    
   139   71  137 1    
@<TRIPOS>SUBSTRUCTURE
     1 UNK         1 GROUP             0       ****    0 ROOT    
