@<TRIPOS>MOLECULE
3R137
137   139    1
SMALL
USER_CHARGES


@<TRIPOS>ATOM
      1 CA         26.5194   -4.6852   -1.2997 C.3       0 UNK        -0.2020 
      2 C          26.9735   -4.7734    0.1543 C.2       0 UNK         0.4855 
      3 O          26.9710   -5.8727    0.7048 O.2       0 UNK        -0.5197 
      4 N          27.3688   -3.6869    0.8362 N.am      1 UNK        -0.4892 
      5 CA         27.4365   -2.2694    0.4432 C.3       1 UNK         0.0835 
      6 C6         28.5989   -1.9067   -0.5286 C.3       12 UNK        -0.0855 
      7 S7         30.2033   -2.6189   -0.0186 S.3       12 UNK        -0.2931 
      8 C8         31.3182   -2.0653   -1.3590 C.3       12 UNK         0.0378 
      9 C9         31.1645   -2.7617   -2.7157 C.ar      12 UNK        -0.0802 
     10 C10        32.0872   -2.4551   -3.7210 C.ar      12 UNK        -0.0944 
     11 C11        31.9858   -3.0292   -4.9920 C.ar      12 UNK        -0.0787 
     12 C12        30.9266   -3.8984   -5.2718 C.ar      12 UNK        -0.0862 
     13 C13        30.0020   -4.2259   -4.2766 C.ar      12 UNK        -0.0733 
     14 C14        30.1445   -3.6793   -2.9997 C.ar      12 UNK        -0.0832 
     15 C15        28.8517   -5.1810   -4.5559 C.3       12 UNK         0.0240 
     16 S16        27.3081   -4.2824   -4.9171 S.3       12 UNK        -0.2522 
     17 C17        27.4217   -4.0729   -6.7278 C.3       12 UNK        -0.0967 
     18 CA         27.0174   -2.6750   -7.2579 C.3       5 UNK         0.0660 
     19 N          25.6926   -2.2339   -6.8261 N.am      5 UNK        -0.4015 
     20 C          24.5940   -2.3031   -7.5893 C.2       4 UNK         0.4946 
     21 O          24.5478   -2.8910   -8.6712 O.2       4 UNK        -0.5353 
     22 CA         23.3244   -1.5824   -7.0948 C.3       4 UNK         0.0277 
     23 CB         22.3096   -2.6033   -6.5535 C.3       4 UNK        -0.1981 
     24 N          23.5437   -0.5503   -6.0772 N.am      4 UNK        -0.4209 
     25 C          24.3492    0.5178   -6.1749 C.2       3 UNK         0.4942 
     26 O          25.0396    0.7800   -7.1599 O.2       3 UNK        -0.5208 
     27 CA         24.4601    1.4072   -4.9244 C.3       3 UNK         0.0250 
     28 CB         23.4537    2.5663   -5.0001 C.3       3 UNK        -0.1990 
     29 N          24.2781    0.6855   -3.6594 N.am      3 UNK        -0.4232 
     30 C          25.0216   -0.3496   -3.2460 C.2       2 UNK         0.4993 
     31 O          25.9353   -0.8571   -3.9066 O.2       2 UNK        -0.5286 
     32 CA         24.6499   -0.9534   -1.8918 C.3       2 UNK         0.0209 
     33 CB         23.6320   -2.0950   -2.0774 C.3       2 UNK        -0.1931 
     34 N          25.8753   -1.4558   -1.2848 N.am      2 UNK        -0.4546 
     35 C          26.0525   -1.7395    0.0106 C.2       1 UNK         0.5154 
     36 O          25.1693   -1.6127    0.8607 O.2       1 UNK        -0.5181 
     37 C          28.0708   -1.5869   -6.9995 C.2       5 UNK         0.5014 
     38 O          28.8245   -1.2754   -7.9214 O.2       5 UNK        -0.5248 
     39 N          28.1020   -1.0024   -5.7915 N.am      6 UNK        -0.4434 
     40 CA         29.1490   -0.0649   -5.3749 C.3       6 UNK         0.0363 
     41 CB         29.0411    0.2135   -3.8687 C.3       6 UNK        -0.1936 
     42 C          29.1601    1.2485   -6.1713 C.2       6 UNK         0.5081 
     43 O          30.2337    1.7116   -6.5545 O.2       6 UNK        -0.5248 
     44 N          27.9768    1.8215   -6.4267 N.am      7 UNK        -0.4718 
     45 CA         27.8397    3.0196   -7.2585 C.3       7 UNK         0.0273 
     46 CB         26.5838    3.8147   -6.8681 C.3       7 UNK        -0.1935 
     47 C          27.8224    2.6489   -8.7465 C.2       7 UNK         0.5018 
     48 O          28.4900    3.3152   -9.5364 O.2       7 UNK        -0.5186 
     49 N          27.0930    1.5773   -9.0930 N.am      8 UNK        -0.4240 
     50 CA         26.9276    1.0630  -10.4558 C.3       8 UNK         0.0235 
     51 CB         25.9871   -0.1515  -10.4338 C.3       8 UNK        -0.2000 
     52 C          28.2472    0.7146  -11.1674 C.2       8 UNK         0.4941 
     53 O          28.4047    1.0663  -12.3372 O.2       8 UNK        -0.5273 
     54 N          29.1753    0.0604  -10.4546 N.am      9 UNK        -0.4262 
     55 CA         30.5131   -0.2722  -10.9551 C.3       9 UNK         0.0264 
     56 CB         30.9275   -1.6480  -10.4062 C.3       9 UNK        -0.1955 
     57 C          31.5680    0.8031  -10.6251 C.2       9 UNK         0.5031 
     58 O          32.7257    0.6239  -11.0070 O.2       9 UNK        -0.5390 
     59 N          31.1652    1.8900   -9.9449 N.am      10 UNK        -0.4204 
     60 CA         31.9822    3.0295   -9.5057 C.3       10 UNK         0.0237 
     61 CB         32.4206    3.8800  -10.7168 C.3       10 UNK        -0.1985 
     62 C          33.1592    2.6053   -8.6052 C.2       10 UNK         0.4970 
     63 O          34.3137    2.9295   -8.8922 O.2       10 UNK        -0.4914 
     64 N          32.8365    1.8697   -7.5367 N.am      11 UNK        -0.4285 
     65 CA         33.7932    1.3156   -6.5674 C.3       11 UNK         0.1007 
     66 C          34.3521    2.3541   -5.5526 C.2       11 UNK         0.5703 
     67 N          33.7912    3.5534   -5.4466 N.am      11 UNK        -0.7361 
     68 O          35.3217    2.0678   -4.8540 O.2       11 UNK        -0.4986 
     69 C69        33.2021    0.0849   -5.8311 C.3       12 UNK        -0.0947 
     70 S70        32.6639   -1.2226   -6.9856 S.3       12 UNK        -0.2240 
     71 C71        33.0371   -2.7360   -6.0529 C.3       12 UNK         0.0194 
     72 H72        26.6626   -5.6441   -1.7973 H         1 UNK         0.0906 
     73 H73        25.4586   -4.4433   -1.3489 H         1 UNK         0.0906 
     74 H74        27.0721   -3.9465   -1.8709 H         1 UNK         0.0906 
     75 H75        27.6428   -3.8402    1.7966 H         1 UNK         0.3140 
     76 H76        27.6523   -1.7407    1.3737 H         1 UNK         0.1085 
     77 H77        28.3837   -2.2091   -1.5495 H         1 UNK         0.0836 
     78 H78        28.7163   -0.8217   -0.5670 H         1 UNK         0.0836 
     79 H79        31.1917   -0.9905   -1.4974 H         1 UNK         0.0731 
     80 H80        32.3428   -2.2100   -1.0133 H         1 UNK         0.0731 
     81 H81        32.8960   -1.7694   -3.5098 H         1 UNK         0.1312 
     82 H82        30.8336   -4.3318   -6.2580 H         1 UNK         0.1406 
     83 H83        29.4427   -3.9784   -2.2378 H         1 UNK         0.1631 
     84 H84        28.6870   -5.8145   -3.6830 H         1 UNK         0.0717 
     85 H85        29.0964   -5.8600   -5.3741 H         1 UNK         0.0717 
     86 H86        28.4275   -4.3210   -7.0708 H         1 UNK         0.0934 
     87 H87        26.7711   -4.8236   -7.1791 H         1 UNK         0.0934 
     88 H88        27.0038   -2.7718   -8.3458 H         1 UNK         0.0739 
     89 H89        25.6420   -1.7470   -5.9403 H         1 UNK         0.3093 
     90 H90        22.8855   -1.0868   -7.9631 H         1 UNK         0.0818 
     91 H91        21.3612   -2.1283   -6.3019 H         1 UNK         0.0819 
     92 H92        22.0949   -3.3733   -7.2961 H         1 UNK         0.0819 
     93 H93        22.6825   -3.1074   -5.6608 H         1 UNK         0.0819 
     94 H94        23.0365   -0.6672   -5.2127 H         1 UNK         0.3041 
     95 H95        25.4663    1.8286   -4.9110 H         1 UNK         0.0784 
     96 H96        23.6044    3.2763   -4.1866 H         1 UNK         0.0793 
     97 H97        23.5592    3.1210   -5.9333 H         1 UNK         0.0793 
     98 H98        22.4235    2.2113   -4.9503 H         1 UNK         0.0793 
     99 H99        23.5409    1.0235   -3.0565 H         1 UNK         0.3024 
    100 H100       24.2270   -0.1757   -1.2514 H         1 UNK         0.1171 
    101 H101       22.7070   -1.7273   -2.5230 H         1 UNK         0.0786 
    102 H102       23.3677   -2.5554   -1.1254 H         1 UNK         0.0786 
    103 H103       24.0205   -2.8775   -2.7310 H         1 UNK         0.0786 
    104 H104       26.6363   -1.5556   -1.9442 H         1 UNK         0.2977 
    105 H105       27.4221   -1.2590   -5.0815 H         1 UNK         0.3127 
    106 H106       30.1050   -0.5612   -5.5504 H         1 UNK         0.0770 
    107 H107       28.1107    0.7216   -3.6138 H         1 UNK         0.0814 
    108 H108       29.8629    0.8463   -3.5315 H         1 UNK         0.0814 
    109 H109       29.0901   -0.7113   -3.2968 H         1 UNK         0.0814 
    110 H110       27.1315    1.3506   -6.1376 H         1 UNK         0.2983 
    111 H111       28.7007    3.6706   -7.0874 H         1 UNK         0.0947 
    112 H112       25.6665    3.2888   -7.1271 H         1 UNK         0.0806 
    113 H113       26.5591    4.7712   -7.3918 H         1 UNK         0.0806 
    114 H114       26.5629    4.0313   -5.8000 H         1 UNK         0.0806 
    115 H115       26.5280    1.1356   -8.3730 H         1 UNK         0.3000 
    116 H116       26.4454    1.8528  -11.0354 H         1 UNK         0.0850 
    117 H117       25.8046   -0.5242  -11.4425 H         1 UNK         0.0810 
    118 H118       25.0186    0.1013  -10.0012 H         1 UNK         0.0810 
    119 H119       26.4068   -0.9733   -9.8541 H         1 UNK         0.0810 
    120 H120       28.9652   -0.2388   -9.5033 H         1 UNK         0.3040 
    121 H121       30.4831   -0.3549  -12.0435 H         1 UNK         0.0766 
    122 H122       31.8968   -1.9550  -10.8007 H         1 UNK         0.0812 
    123 H123       30.2067   -2.4182  -10.6807 H         1 UNK         0.0812 
    124 H124       31.0074   -1.6393   -9.3204 H         1 UNK         0.0812 
    125 H125       30.1816    1.9582   -9.7130 H         1 UNK         0.3205 
    126 H126       31.3317    3.6501   -8.8871 H         1 UNK         0.0754 
    127 H127       32.9491    4.7775  -10.3930 H         1 UNK         0.0769 
    128 H128       31.5605    4.2046  -11.3028 H         1 UNK         0.0769 
    129 H129       33.0892    3.3293  -11.3794 H         1 UNK         0.0769 
    130 H130       31.8545    1.6946   -7.3275 H         1 UNK         0.2981 
    131 H131       34.6581    0.9648   -7.1338 H         1 UNK         0.0541 
    132 H132       32.9896    3.7906   -6.0082 H         1 UNK         0.3459 
    133 H133       34.1661    4.2191   -4.7896 H         1 UNK         0.3459 
    134 H134       32.3502    0.3759   -5.2146 H         1 UNK         0.0612 
    135 H135       33.9463   -0.3335   -5.1517 H         1 UNK         0.0612 
    136 H136       34.0266   -2.6614   -5.5996 H         1 UNK         0.0624 
    137 H137       33.0923   -3.5674   -6.7571 H         1 UNK         0.0624 
@<TRIPOS>BOND
     1    1    2 1    
     2    1   72 1    
     3    1   73 1    
     4    1   74 1    
     5    2    3 2    
     6    2    4 am   BACKBONE|DICT|INTERRES
     7    4    5 1    
     8    4   75 1    
     9    5    6 1    
    10    5   35 1    
    11    5   76 1    
    12    6    7 1    
    13    6   77 1    
    14    6   78 1    
    15    7    8 1    
    16    8    9 1    
    17    8   79 1    
    18    8   80 1    
    19    9   10 ar   
    20    9   14 ar   
    21   10   11 ar   
    22   10   81 1    
    23   11   12 ar   
    24   11   71 1    
    25   12   13 ar   
    26   12   82 1    
    27   13   14 ar   
    28   13   15 1    
    29   14   83 1    
    30   15   16 1    
    31   15   84 1    
    32   15   85 1    
    33   16   17 1    
    34   17   18 1    
    35   17   86 1    
    36   17   87 1    
    37   18   19 1    
    38   18   37 1    
    39   18   88 1    
    40   19   20 am   BACKBONE|DICT|INTERRES
    41   19   89 1    
    42   20   21 2    
    43   20   22 1    
    44   22   23 1    
    45   22   24 1    
    46   22   90 1    
    47   23   91 1    
    48   23   92 1    
    49   23   93 1    
    50   24   25 am   BACKBONE|DICT|INTERRES
    51   24   94 1    
    52   25   26 2    
    53   25   27 1    
    54   27   28 1    
    55   27   29 1    
    56   27   95 1    
    57   28   96 1    
    58   28   97 1    
    59   28   98 1    
    60   29   30 am   BACKBONE|DICT|INTERRES
    61   29   99 1    
    62   30   31 2    
    63   30   32 1    
    64   32   33 1    
    65   32   34 1    
    66   32  100 1    
    67   33  101 1    
    68   33  102 1    
    69   33  103 1    
    70   34   35 am   BACKBONE|DICT|INTERRES
    71   34  104 1    
    72   35   36 2    
    73   37   38 2    
    74   37   39 am   BACKBONE|DICT|INTERRES
    75   39   40 1    
    76   39  105 1    
    77   40   41 1    
    78   40   42 1    
    79   40  106 1    
    80   41  107 1    
    81   41  108 1    
    82   41  109 1    
    83   42   43 2    
    84   42   44 am   BACKBONE|DICT|INTERRES
    85   44   45 1    
    86   44  110 1    
    87   45   46 1    
    88   45   47 1    
    89   45  111 1    
    90   46  112 1    
    91   46  113 1    
    92   46  114 1    
    93   47   48 2    
    94   47   49 am   BACKBONE|DICT|INTERRES
    95   49   50 1    
    96   49  115 1    
    97   50   51 1    
    98   50   52 1    
    99   50  116 1    
   100   51  117 1    
   101   51  118 1    
   102   51  119 1    
   103   52   53 2    
   104   52   54 am   BACKBONE|DICT|INTERRES
   105   54   55 1    
   106   54  120 1    
   107   55   56 1    
   108   55   57 1    
   109   55  121 1    
   110   56  122 1    
   111   56  123 1    
   112   56  124 1    
   113   57   58 2    
   114   57   59 am   BACKBONE|DICT|INTERRES
   115   59   60 1    
   116   59  125 1    
   117   60   61 1    
   118   60   62 1    
   119   60  126 1    
   120   61  127 1    
   121   61  128 1    
   122   61  129 1    
   123   62   63 2    
   124   62   64 am   BACKBONE|DICT|INTERRES
   125   64   65 1    
   126   64  130 1    
   127   65   66 1    
   128   65   69 1    
   129   65  131 1    
   130   66   67 am   BACKBONE|DICT|INTERRES
   131   66   68 2    
   132   67  132 1    
   133   67  133 1    
   134   69   70 1    
   135   69  134 1    
   136   69  135 1    
   137   70   71 1    
   138   71  136 1    
   139   71  137 1    
@<TRIPOS>SUBSTRUCTURE
     1 UNK         1 GROUP             0       ****    0 ROOT    
