@<TRIPOS>MOLECULE
3R137
137   139    1
SMALL
USER_CHARGES


@<TRIPOS>ATOM
      1 CA         29.4653   -5.0320   -3.0051 C.3       0 UNK        -0.2020 
      2 C          29.1282   -4.2382   -1.7544 C.2       0 UNK         0.4855 
      3 O          28.8401   -4.8306   -0.7144 O.2       0 UNK        -0.5197 
      4 N          29.1567   -2.9016   -1.8457 N.am      1 UNK        -0.4892 
      5 CA         28.8146   -1.9878   -0.7476 C.3       1 UNK         0.0835 
      6 C6         29.3769   -0.5621   -0.9817 C.3       12 UNK        -0.0855 
      7 S7         28.7510    0.2671   -2.4882 S.3       12 UNK        -0.2931 
      8 C8         30.2617    0.4587   -3.4849 C.3       12 UNK         0.0378 
      9 C9         30.6719   -0.8549   -4.1293 C.ar      12 UNK        -0.0802 
     10 C10        31.7356   -1.5996   -3.6163 C.ar      12 UNK        -0.0944 
     11 C11        32.1227   -2.7979   -4.2258 C.ar      12 UNK        -0.0787 
     12 C12        31.4073   -3.2720   -5.3301 C.ar      12 UNK        -0.0862 
     13 C13        30.3347   -2.5378   -5.8448 C.ar      12 UNK        -0.0733 
     14 C14        29.9895   -1.3199   -5.2541 C.ar      12 UNK        -0.0832 
     15 C15        29.5788   -3.0327   -7.0686 C.3       12 UNK         0.0240 
     16 S16        28.2099   -4.1636   -6.6541 S.3       12 UNK        -0.2522 
     17 C17        27.0418   -3.1233   -5.7094 C.3       12 UNK        -0.0967 
     18 CA         26.1011   -2.2763   -6.6133 C.3       5 UNK         0.0660 
     19 N          24.7204   -2.2882   -6.1266 N.am      5 UNK        -0.4015 
     20 C          23.6315   -2.2030   -6.9030 C.2       4 UNK         0.4946 
     21 O          23.6673   -2.1630   -8.1333 O.2       4 UNK        -0.5353 
     22 CA         22.2647   -2.1558   -6.1938 C.3       4 UNK         0.0277 
     23 CB         21.6737   -3.5701   -6.0750 C.3       4 UNK        -0.1981 
     24 N          22.3208   -1.5422   -4.8642 N.am      4 UNK        -0.4209 
     25 C          22.5340   -0.2380   -4.6394 C.2       3 UNK         0.4942 
     26 O          22.6427    0.6022   -5.5324 O.2       3 UNK        -0.5208 
     27 CA         22.6833    0.2017   -3.1706 C.3       3 UNK         0.0250 
     28 CB         21.3174    0.6103   -2.5957 C.3       3 UNK        -0.1990 
     29 N          23.3105   -0.7851   -2.2789 N.am      3 UNK        -0.4232 
     30 C          24.5039   -1.3650   -2.4688 C.2       2 UNK         0.4993 
     31 O          25.1772   -1.2364   -3.4951 O.2       2 UNK        -0.5286 
     32 CA         25.0092   -2.2847   -1.3537 C.3       2 UNK         0.0209 
     33 CB         24.4742   -3.7117   -1.5585 C.3       2 UNK        -0.1931 
     34 N          26.4679   -2.3157   -1.4103 N.am      2 UNK        -0.4546 
     35 C          27.3026   -1.9687   -0.4234 C.2       1 UNK         0.5154 
     36 O          26.9299   -1.6481    0.7069 O.2       1 UNK        -0.5181 
     37 C          26.6027   -0.8260   -6.7473 C.2       5 UNK         0.5014 
     38 O          27.2964   -0.5151   -7.7131 O.2       5 UNK        -0.5248 
     39 N          26.2395    0.0375   -5.7850 N.am      6 UNK        -0.4434 
     40 CA         26.6801    1.4317   -5.6244 C.3       6 UNK         0.0363 
     41 CB         25.9798    2.0303   -4.3939 C.3       6 UNK        -0.1936 
     42 C          26.4845    2.3632   -6.8379 C.2       6 UNK         0.5081 
     43 O          27.0951    3.4317   -6.8732 O.2       6 UNK        -0.5248 
     44 N          25.6504    1.9614   -7.8052 N.am      7 UNK        -0.4718 
     45 CA         25.4944    2.6234   -9.1015 C.3       7 UNK         0.0273 
     46 CB         24.2486    2.0560   -9.8012 C.3       7 UNK        -0.1935 
     47 C          26.7326    2.4928  -10.0136 C.2       7 UNK         0.5018 
     48 O          26.9053    3.3297  -10.9015 O.2       7 UNK        -0.5186 
     49 N          27.5582    1.4566   -9.8038 N.am      8 UNK        -0.4240 
     50 CA         28.8024    1.2233  -10.5388 C.3       8 UNK         0.0235 
     51 CB         29.1769   -0.2640  -10.4295 C.3       8 UNK        -0.2000 
     52 C          29.9480    2.1032  -10.0105 C.2       8 UNK         0.4941 
     53 O          29.9335    2.5199   -8.8507 O.2       8 UNK        -0.5273 
     54 N          30.9501    2.3319  -10.8689 N.am      9 UNK        -0.4262 
     55 CA         32.1470    3.1292  -10.5727 C.3       9 UNK         0.0264 
     56 CB         32.7377    3.6378  -11.8997 C.3       9 UNK        -0.1955 
     57 C          33.2207    2.3822   -9.7532 C.2       9 UNK         0.5031 
     58 O          34.2275    2.9946   -9.3929 O.2       9 UNK        -0.5390 
     59 N          33.0134    1.0879   -9.4899 N.am      10 UNK        -0.4204 
     60 CA         33.8928    0.2056   -8.7278 C.3       10 UNK         0.0237 
     61 CB         34.7404   -0.6146   -9.7189 C.3       10 UNK        -0.1985 
     62 C          33.0086   -0.7101   -7.8620 C.2       10 UNK         0.4970 
     63 O          31.8589   -0.9308   -8.2424 O.2       10 UNK        -0.4914 
     64 N          33.4960   -1.2714   -6.7452 N.am      11 UNK        -0.4285 
     65 CA         34.8325   -1.1054   -6.1481 C.3       11 UNK         0.1007 
     66 C          35.0192    0.2047   -5.3259 C.2       11 UNK         0.5703 
     67 N          33.9688    0.9722   -5.0587 N.am      11 UNK        -0.7361 
     68 O          36.1408    0.5437   -4.9574 O.2       11 UNK        -0.4986 
     69 C69        35.2842   -2.4004   -5.4047 C.3       12 UNK        -0.0947 
     70 S70        34.8272   -2.5590   -3.6390 S.3       12 UNK        -0.2240 
     71 C71        33.3158   -3.5757   -3.6914 C.3       12 UNK         0.0194 
     72 H72        28.8511   -5.9302   -3.0639 H         1 UNK         0.0906 
     73 H73        29.2834   -4.4474   -3.9042 H         1 UNK         0.0906 
     74 H74        30.5126   -5.3319   -2.9925 H         1 UNK         0.0906 
     75 H75        29.4326   -2.4559   -2.7114 H         1 UNK         0.3140 
     76 H76        29.3017   -2.3738    0.1511 H         1 UNK         0.1085 
     77 H77        29.1483    0.0764   -0.1262 H         1 UNK         0.0836 
     78 H78        30.4660   -0.6074   -1.0184 H         1 UNK         0.0836 
     79 H79        31.0659    0.8632   -2.8681 H         1 UNK         0.0731 
     80 H80        30.0766    1.1999   -4.2639 H         1 UNK         0.0731 
     81 H81        32.2793   -1.2381   -2.7539 H         1 UNK         0.1312 
     82 H82        31.6890   -4.2058   -5.7983 H         1 UNK         0.1406 
     83 H83        29.1846   -0.7300   -5.6668 H         1 UNK         0.1631 
     84 H84        30.2697   -3.5559   -7.7313 H         1 UNK         0.0717 
     85 H85        29.2036   -2.1926   -7.6500 H         1 UNK         0.0717 
     86 H86        26.4504   -3.8249   -5.1186 H         1 UNK         0.0934 
     87 H87        27.5682   -2.5242   -4.9654 H         1 UNK         0.0934 
     88 H88        26.1037   -2.7093   -7.6163 H         1 UNK         0.0739 
     89 H89        24.6079   -2.2304   -5.1208 H         1 UNK         0.3093 
     90 H90        21.5946   -1.5571   -6.8149 H         1 UNK         0.0818 
     91 H91        21.5955   -4.0432   -7.0550 H         1 UNK         0.0819 
     92 H92        22.2911   -4.2168   -5.4500 H         1 UNK         0.0819 
     93 H93        20.6707   -3.5471   -5.6484 H         1 UNK         0.0819 
     94 H94        22.2281   -2.1568   -4.0685 H         1 UNK         0.3041 
     95 H95        23.3251    1.0838   -3.1645 H         1 UNK         0.0784 
     96 H96        20.8372    1.3614   -3.2249 H         1 UNK         0.0793 
     97 H97        20.6371   -0.2395   -2.5263 H         1 UNK         0.0793 
     98 H98        21.4178    1.0436   -1.6003 H         1 UNK         0.0793 
     99 H99        22.8163   -0.9778   -1.4191 H         1 UNK         0.3024 
    100 H100       24.6667   -1.8974   -0.3913 H         1 UNK         0.1171 
    101 H101       23.3848   -3.7358   -1.5102 H         1 UNK         0.0786 
    102 H102       24.7693   -4.1206   -2.5261 H         1 UNK         0.0786 
    103 H103       24.8465   -4.3853   -0.7863 H         1 UNK         0.0786 
    104 H104       26.8617   -2.4674   -2.3280 H         1 UNK         0.2977 
    105 H105       25.7121   -0.3396   -4.9999 H         1 UNK         0.3127 
    106 H106       27.7522    1.3989   -5.4235 H         1 UNK         0.0770 
    107 H107       24.9083    2.1381   -4.5626 H         1 UNK         0.0814 
    108 H108       26.3740    3.0210   -4.1639 H         1 UNK         0.0814 
    109 H109       26.1231    1.4133   -3.5070 H         1 UNK         0.0814 
    110 H110       25.1826    1.0747   -7.6839 H         1 UNK         0.2983 
    111 H111       25.3336    3.6887   -8.9217 H         1 UNK         0.0947 
    112 H112       24.3452    0.9862   -9.9919 H         1 UNK         0.0806 
    113 H113       24.0835    2.5455  -10.7622 H         1 UNK         0.0806 
    114 H114       23.3512    2.2107   -9.2017 H         1 UNK         0.0806 
    115 H115       27.3781    0.8324   -9.0199 H         1 UNK         0.3000 
    116 H116       28.6336    1.4621  -11.5913 H         1 UNK         0.0850 
    117 H117       30.0544   -0.4985  -11.0329 H         1 UNK         0.0810 
    118 H118       28.3656   -0.9057  -10.7737 H         1 UNK         0.0810 
    119 H119       29.4074   -0.5420   -9.4007 H         1 UNK         0.0810 
    120 H120       30.8945    1.9377  -11.7978 H         1 UNK         0.3040 
    121 H121       31.8455    3.9979   -9.9831 H         1 UNK         0.0766 
    122 H122       32.0096    4.2243  -12.4604 H         1 UNK         0.0812 
    123 H123       33.0705    2.8160  -12.5351 H         1 UNK         0.0812 
    124 H124       33.6002    4.2824  -11.7242 H         1 UNK         0.0812 
    125 H125       32.1207    0.6761   -9.7291 H         1 UNK         0.3205 
    126 H126       34.5399    0.8058   -8.0874 H         1 UNK         0.0754 
    127 H127       35.3992   -1.3168   -9.2087 H         1 UNK         0.0769 
    128 H128       35.3707    0.0342  -10.3275 H         1 UNK         0.0769 
    129 H129       34.1128   -1.1968  -10.3951 H         1 UNK         0.0769 
    130 H130       32.8628   -1.8359   -6.1957 H         1 UNK         0.2981 
    131 H131       35.5344   -1.0027   -6.9744 H         1 UNK         0.0541 
    132 H132       33.0448    0.6909   -5.3432 H         1 UNK         0.3459 
    133 H133       34.1022    1.8236   -4.5368 H         1 UNK         0.3459 
    134 H134       34.9500   -3.2878   -5.9447 H         1 UNK         0.0612 
    135 H135       36.3739   -2.4501   -5.4333 H         1 UNK         0.0612 
    136 H136       33.5045   -4.4726   -4.2833 H         1 UNK         0.0624 
    137 H137       33.0864   -3.9142   -2.6802 H         1 UNK         0.0624 
@<TRIPOS>BOND
     1    1    2 1    
     2    1   72 1    
     3    1   73 1    
     4    1   74 1    
     5    2    3 2    
     6    2    4 am   BACKBONE|DICT|INTERRES
     7    4    5 1    
     8    4   75 1    
     9    5    6 1    
    10    5   35 1    
    11    5   76 1    
    12    6    7 1    
    13    6   77 1    
    14    6   78 1    
    15    7    8 1    
    16    8    9 1    
    17    8   79 1    
    18    8   80 1    
    19    9   10 ar   
    20    9   14 ar   
    21   10   11 ar   
    22   10   81 1    
    23   11   12 ar   
    24   11   71 1    
    25   12   13 ar   
    26   12   82 1    
    27   13   14 ar   
    28   13   15 1    
    29   14   83 1    
    30   15   16 1    
    31   15   84 1    
    32   15   85 1    
    33   16   17 1    
    34   17   18 1    
    35   17   86 1    
    36   17   87 1    
    37   18   19 1    
    38   18   37 1    
    39   18   88 1    
    40   19   20 am   BACKBONE|DICT|INTERRES
    41   19   89 1    
    42   20   21 2    
    43   20   22 1    
    44   22   23 1    
    45   22   24 1    
    46   22   90 1    
    47   23   91 1    
    48   23   92 1    
    49   23   93 1    
    50   24   25 am   BACKBONE|DICT|INTERRES
    51   24   94 1    
    52   25   26 2    
    53   25   27 1    
    54   27   28 1    
    55   27   29 1    
    56   27   95 1    
    57   28   96 1    
    58   28   97 1    
    59   28   98 1    
    60   29   30 am   BACKBONE|DICT|INTERRES
    61   29   99 1    
    62   30   31 2    
    63   30   32 1    
    64   32   33 1    
    65   32   34 1    
    66   32  100 1    
    67   33  101 1    
    68   33  102 1    
    69   33  103 1    
    70   34   35 am   BACKBONE|DICT|INTERRES
    71   34  104 1    
    72   35   36 2    
    73   37   38 2    
    74   37   39 am   BACKBONE|DICT|INTERRES
    75   39   40 1    
    76   39  105 1    
    77   40   41 1    
    78   40   42 1    
    79   40  106 1    
    80   41  107 1    
    81   41  108 1    
    82   41  109 1    
    83   42   43 2    
    84   42   44 am   BACKBONE|DICT|INTERRES
    85   44   45 1    
    86   44  110 1    
    87   45   46 1    
    88   45   47 1    
    89   45  111 1    
    90   46  112 1    
    91   46  113 1    
    92   46  114 1    
    93   47   48 2    
    94   47   49 am   BACKBONE|DICT|INTERRES
    95   49   50 1    
    96   49  115 1    
    97   50   51 1    
    98   50   52 1    
    99   50  116 1    
   100   51  117 1    
   101   51  118 1    
   102   51  119 1    
   103   52   53 2    
   104   52   54 am   BACKBONE|DICT|INTERRES
   105   54   55 1    
   106   54  120 1    
   107   55   56 1    
   108   55   57 1    
   109   55  121 1    
   110   56  122 1    
   111   56  123 1    
   112   56  124 1    
   113   57   58 2    
   114   57   59 am   BACKBONE|DICT|INTERRES
   115   59   60 1    
   116   59  125 1    
   117   60   61 1    
   118   60   62 1    
   119   60  126 1    
   120   61  127 1    
   121   61  128 1    
   122   61  129 1    
   123   62   63 2    
   124   62   64 am   BACKBONE|DICT|INTERRES
   125   64   65 1    
   126   64  130 1    
   127   65   66 1    
   128   65   69 1    
   129   65  131 1    
   130   66   67 am   BACKBONE|DICT|INTERRES
   131   66   68 2    
   132   67  132 1    
   133   67  133 1    
   134   69   70 1    
   135   69  134 1    
   136   69  135 1    
   137   70   71 1    
   138   71  136 1    
   139   71  137 1    
@<TRIPOS>SUBSTRUCTURE
     1 UNK         1 GROUP             0       ****    0 ROOT    
