@<TRIPOS>MOLECULE
3R137
137   139    1
SMALL
USER_CHARGES


@<TRIPOS>ATOM
      1 CA         23.4724   -6.0292   -3.4104 C.3       0 UNK        -0.2020 
      2 C          24.4060   -4.8708   -3.0991 C.2       0 UNK         0.4855 
      3 O          24.2724   -3.8038   -3.6995 O.2       0 UNK        -0.5197 
      4 N          25.3337   -5.0622   -2.1486 N.am      1 UNK        -0.4892 
      5 CA         26.3917   -4.1177   -1.7413 C.3       1 UNK         0.0835 
      6 C6         27.4632   -3.9016   -2.8410 C.3       12 UNK        -0.0855 
      7 S7         28.2736   -5.4413   -3.4004 S.3       12 UNK        -0.2931 
      8 C8         29.9251   -5.3233   -2.6317 C.3       12 UNK         0.0378 
      9 C9         30.6858   -4.0890   -3.0978 C.ar      12 UNK        -0.0802 
     10 C10        31.2400   -4.0408   -4.3798 C.ar      12 UNK        -0.0944 
     11 C11        31.8883   -2.8862   -4.8296 C.ar      12 UNK        -0.0787 
     12 C12        31.9811   -1.7753   -3.9843 C.ar      12 UNK        -0.0862 
     13 C13        31.4367   -1.8154   -2.6969 C.ar      12 UNK        -0.0733 
     14 C14        30.8085   -2.9816   -2.2541 C.ar      12 UNK        -0.0832 
     15 C15        31.5119   -0.6028   -1.7780 C.3       12 UNK         0.0240 
     16 S16        30.6850    0.8712   -2.4632 S.3       12 UNK        -0.2522 
     17 C17        29.0028    0.2762   -2.8704 C.3       12 UNK        -0.0967 
     18 CA         28.7403    0.2507   -4.4004 C.3       5 UNK         0.0660 
     19 N          27.6037   -0.6125   -4.7420 N.am      5 UNK        -0.4015 
     20 C          27.3205   -1.0119   -5.9910 C.2       4 UNK         0.4946 
     21 O          28.0626   -0.8092   -6.9510 O.2       4 UNK        -0.5353 
     22 CA         25.9655   -1.6960   -6.2484 C.3       4 UNK         0.0277 
     23 CB         26.1328   -3.1811   -6.6136 C.3       4 UNK        -0.1981 
     24 N          24.9594   -1.5440   -5.1884 N.am      4 UNK        -0.4209 
     25 C          24.3940   -0.3792   -4.8366 C.2       3 UNK         0.4942 
     26 O          24.8081    0.7152   -5.2181 O.2       3 UNK        -0.5208 
     27 CA         23.1705   -0.4344   -3.9156 C.3       3 UNK         0.0250 
     28 CB         21.9776   -1.0882   -4.6338 C.3       3 UNK        -0.1990 
     29 N          23.4689   -1.1724   -2.6907 N.am      3 UNK        -0.4232 
     30 C          23.5127   -0.6354   -1.4625 C.2       2 UNK         0.4993 
     31 O          23.2744    0.5490   -1.2224 O.2       2 UNK        -0.5286 
     32 CA         23.8777   -1.5675   -0.2892 C.3       2 UNK         0.0209 
     33 CB         22.6116   -1.9895    0.4746 C.3       2 UNK        -0.1931 
     34 N          24.6144   -2.7687   -0.6925 N.am      2 UNK        -0.4546 
     35 C          25.8446   -2.7645   -1.2246 C.2       1 UNK         0.5154 
     36 O          26.5166   -1.7384   -1.3487 O.2       1 UNK        -0.5181 
     37 C          28.5784    1.6800   -4.9801 C.2       5 UNK         0.5014 
     38 O          29.5831    2.3153   -5.3033 O.2       5 UNK        -0.5248 
     39 N          27.3318    2.1626   -5.1015 N.am      6 UNK        -0.4434 
     40 CA         27.0012    3.4957   -5.6105 C.3       6 UNK         0.0363 
     41 CB         26.0148    4.1688   -4.6417 C.3       6 UNK        -0.1936 
     42 C          26.3993    3.4429   -7.0228 C.2       6 UNK         0.5081 
     43 O          26.6600    4.3432   -7.8208 O.2       6 UNK        -0.5248 
     44 N          25.5873    2.4147   -7.3063 N.am      7 UNK        -0.4718 
     45 CA         24.8394    2.2639   -8.5583 C.3       7 UNK         0.0273 
     46 CB         23.6870    1.2690   -8.3389 C.3       7 UNK        -0.1935 
     47 C          25.6947    1.8448   -9.7677 C.2       7 UNK         0.5018 
     48 O          25.2276    1.9936  -10.8982 O.2       7 UNK        -0.5186 
     49 N          26.9072    1.3314   -9.5280 N.am      8 UNK        -0.4240 
     50 CA         27.8765    0.9542  -10.5554 C.3       8 UNK         0.0235 
     51 CB         28.0982   -0.5679  -10.5049 C.3       8 UNK        -0.2000 
     52 C          29.1944    1.7001  -10.3146 C.2       8 UNK         0.4941 
     53 O          29.4785    2.1066   -9.1867 O.2       8 UNK        -0.5273 
     54 N          29.9959    1.8278  -11.3796 N.am      9 UNK        -0.4262 
     55 CA         31.3237    2.4557  -11.3682 C.3       9 UNK         0.0264 
     56 CB         31.5935    3.0585  -12.7590 C.3       9 UNK        -0.1955 
     57 C          32.4566    1.4915  -10.9550 C.2       9 UNK         0.5031 
     58 O          33.6268    1.8739  -11.0203 O.2       9 UNK        -0.5390 
     59 N          32.1055    0.2572  -10.5703 N.am      10 UNK        -0.4204 
     60 CA         33.0190   -0.7938  -10.1220 C.3       10 UNK         0.0237 
     61 CB         32.2229   -2.1028   -9.9761 C.3       10 UNK        -0.1985 
     62 C          33.7246   -0.4485   -8.7985 C.2       10 UNK         0.4970 
     63 O          33.2058    0.3421   -8.0076 O.2       10 UNK        -0.4914 
     64 N          34.8736   -1.0976   -8.5741 N.am      11 UNK        -0.4285 
     65 CA         35.6984   -1.0215   -7.3528 C.3       11 UNK         0.1007 
     66 C          36.4131    0.3460   -7.1230 C.2       11 UNK         0.5703 
     67 N          36.4344    1.2576   -8.0885 N.am      11 UNK        -0.7361 
     68 O          36.9940    0.5736   -6.0641 O.2       11 UNK        -0.4986 
     69 C69        34.9609   -1.5275   -6.0762 C.3       12 UNK        -0.0947 
     70 S70        34.2361   -3.1933   -6.2766 S.3       12 UNK        -0.2240 
     71 C71        32.4508   -2.8340   -6.2418 C.3       12 UNK         0.0194 
     72 H72        23.5610   -6.3061   -4.4604 H         1 UNK         0.0906 
     73 H73        23.6963   -6.9086   -2.8073 H         1 UNK         0.0906 
     74 H74        22.4395   -5.7391   -3.2205 H         1 UNK         0.0906 
     75 H75        25.3752   -5.9623   -1.6898 H         1 UNK         0.3140 
     76 H76        26.8908   -4.5699   -0.8828 H         1 UNK         0.1085 
     77 H77        28.2217   -3.2055   -2.4924 H         1 UNK         0.0836 
     78 H78        27.0156   -3.4150   -3.7043 H         1 UNK         0.0836 
     79 H79        30.4974   -6.2176   -2.8826 H         1 UNK         0.0731 
     80 H80        29.8158   -5.3258   -1.5460 H         1 UNK         0.0731 
     81 H81        31.1450   -4.8965   -5.0344 H         1 UNK         0.1312 
     82 H82        32.4589   -0.8697   -4.3296 H         1 UNK         0.1406 
     83 H83        30.3820   -3.0164   -1.2606 H         1 UNK         0.1631 
     84 H84        32.5599   -0.3633   -1.5929 H         1 UNK         0.0717 
     85 H85        31.0725   -0.8236   -0.8039 H         1 UNK         0.0717 
     86 H86        28.8764   -0.7223   -2.4506 H         1 UNK         0.0934 
     87 H87        28.2701    0.9013   -2.3561 H         1 UNK         0.0934 
     88 H88        29.6169   -0.1898   -4.8812 H         1 UNK         0.0739 
     89 H89        26.9443   -0.8156   -4.0046 H         1 UNK         0.3093 
     90 H90        25.5591   -1.2033   -7.1330 H         1 UNK         0.0818 
     91 H91        26.8420   -3.3027   -7.4336 H         1 UNK         0.0819 
     92 H92        25.1875   -3.6139   -6.9414 H         1 UNK         0.0819 
     93 H93        26.4978   -3.7802   -5.7824 H         1 UNK         0.0819 
     94 H94        24.6077   -2.4058   -4.7720 H         1 UNK         0.3041 
     95 H95        22.8940    0.5968   -3.6857 H         1 UNK         0.0784 
     96 H96        21.7554   -0.5744   -5.5704 H         1 UNK         0.0793 
     97 H97        22.1660   -2.1362   -4.8710 H         1 UNK         0.0793 
     98 H98        21.0782   -1.0439   -4.0195 H         1 UNK         0.0793 
     99 H99        23.7091   -2.1527   -2.8054 H         1 UNK         0.3024 
    100 H100       24.5153   -0.9942    0.3879 H         1 UNK         0.1171 
    101 H101       22.8579   -2.5801    1.3573 H         1 UNK         0.0786 
    102 H102       22.0531   -1.1171    0.8170 H         1 UNK         0.0786 
    103 H103       21.9410   -2.5805   -0.1507 H         1 UNK         0.0786 
    104 H104       24.1249   -3.6504   -0.6349 H         1 UNK         0.2977 
    105 H105       26.5429    1.5634   -4.8784 H         1 UNK         0.3127 
    106 H106       27.8969    4.1186   -5.6602 H         1 UNK         0.0770 
    107 H107       25.0909    3.5972   -4.5420 H         1 UNK         0.0814 
    108 H108       25.7458    5.1673   -4.9892 H         1 UNK         0.0814 
    109 H109       26.4495    4.2782   -3.6481 H         1 UNK         0.0814 
    110 H110       25.3728    1.7444   -6.5703 H         1 UNK         0.2983 
    111 H111       24.4007    3.2337   -8.8037 H         1 UNK         0.0947 
    112 H112       24.0529    0.2684   -8.1121 H         1 UNK         0.0806 
    113 H113       23.0630    1.1917   -9.2303 H         1 UNK         0.0806 
    114 H114       23.0408    1.5833   -7.5190 H         1 UNK         0.0806 
    115 H115       27.2487    1.3053   -8.5758 H         1 UNK         0.3000 
    116 H116       27.5091    1.2254  -11.5476 H         1 UNK         0.0850 
    117 H117       28.7653   -0.8971  -11.3024 H         1 UNK         0.0810 
    118 H118       27.1591   -1.1079  -10.6274 H         1 UNK         0.0810 
    119 H119       28.5405   -0.8814   -9.5587 H         1 UNK         0.0810 
    120 H120       29.6896    1.4520  -12.2667 H         1 UNK         0.3040 
    121 H121       31.3231    3.2720  -10.6424 H         1 UNK         0.0766 
    122 H122       30.8181    3.7715  -13.0401 H         1 UNK         0.0812 
    123 H123       31.6399    2.2892  -13.5308 H         1 UNK         0.0812 
    124 H124       32.5428    3.5957  -12.7777 H         1 UNK         0.0812 
    125 H125       31.1203    0.0547  -10.5062 H         1 UNK         0.3205 
    126 H126       33.7795   -0.9264  -10.8946 H         1 UNK         0.0754 
    127 H127       32.8671   -2.9245   -9.6593 H         1 UNK         0.0769 
    128 H128       31.7671   -2.3986  -10.9213 H         1 UNK         0.0769 
    129 H129       31.4278   -2.0100   -9.2346 H         1 UNK         0.0769 
    130 H130       35.2221   -1.7238   -9.2853 H         1 UNK         0.2981 
    131 H131       36.5181   -1.7175   -7.5336 H         1 UNK         0.0541 
    132 H132       35.9550    1.0929   -8.9595 H         1 UNK         0.3459 
    133 H133       36.9111    2.1313   -7.9311 H         1 UNK         0.3459 
    134 H134       35.6541   -1.5824   -5.2352 H         1 UNK         0.0612 
    135 H135       34.1913   -0.8156   -5.7800 H         1 UNK         0.0612 
    136 H136       32.2454   -1.8609   -6.6874 H         1 UNK         0.0624 
    137 H137       31.9415   -3.5636   -6.8731 H         1 UNK         0.0624 
@<TRIPOS>BOND
     1    1    2 1    
     2    1   72 1    
     3    1   73 1    
     4    1   74 1    
     5    2    3 2    
     6    2    4 am   BACKBONE|DICT|INTERRES
     7    4    5 1    
     8    4   75 1    
     9    5    6 1    
    10    5   35 1    
    11    5   76 1    
    12    6    7 1    
    13    6   77 1    
    14    6   78 1    
    15    7    8 1    
    16    8    9 1    
    17    8   79 1    
    18    8   80 1    
    19    9   10 ar   
    20    9   14 ar   
    21   10   11 ar   
    22   10   81 1    
    23   11   12 ar   
    24   11   71 1    
    25   12   13 ar   
    26   12   82 1    
    27   13   14 ar   
    28   13   15 1    
    29   14   83 1    
    30   15   16 1    
    31   15   84 1    
    32   15   85 1    
    33   16   17 1    
    34   17   18 1    
    35   17   86 1    
    36   17   87 1    
    37   18   19 1    
    38   18   37 1    
    39   18   88 1    
    40   19   20 am   BACKBONE|DICT|INTERRES
    41   19   89 1    
    42   20   21 2    
    43   20   22 1    
    44   22   23 1    
    45   22   24 1    
    46   22   90 1    
    47   23   91 1    
    48   23   92 1    
    49   23   93 1    
    50   24   25 am   BACKBONE|DICT|INTERRES
    51   24   94 1    
    52   25   26 2    
    53   25   27 1    
    54   27   28 1    
    55   27   29 1    
    56   27   95 1    
    57   28   96 1    
    58   28   97 1    
    59   28   98 1    
    60   29   30 am   BACKBONE|DICT|INTERRES
    61   29   99 1    
    62   30   31 2    
    63   30   32 1    
    64   32   33 1    
    65   32   34 1    
    66   32  100 1    
    67   33  101 1    
    68   33  102 1    
    69   33  103 1    
    70   34   35 am   BACKBONE|DICT|INTERRES
    71   34  104 1    
    72   35   36 2    
    73   37   38 2    
    74   37   39 am   BACKBONE|DICT|INTERRES
    75   39   40 1    
    76   39  105 1    
    77   40   41 1    
    78   40   42 1    
    79   40  106 1    
    80   41  107 1    
    81   41  108 1    
    82   41  109 1    
    83   42   43 2    
    84   42   44 am   BACKBONE|DICT|INTERRES
    85   44   45 1    
    86   44  110 1    
    87   45   46 1    
    88   45   47 1    
    89   45  111 1    
    90   46  112 1    
    91   46  113 1    
    92   46  114 1    
    93   47   48 2    
    94   47   49 am   BACKBONE|DICT|INTERRES
    95   49   50 1    
    96   49  115 1    
    97   50   51 1    
    98   50   52 1    
    99   50  116 1    
   100   51  117 1    
   101   51  118 1    
   102   51  119 1    
   103   52   53 2    
   104   52   54 am   BACKBONE|DICT|INTERRES
   105   54   55 1    
   106   54  120 1    
   107   55   56 1    
   108   55   57 1    
   109   55  121 1    
   110   56  122 1    
   111   56  123 1    
   112   56  124 1    
   113   57   58 2    
   114   57   59 am   BACKBONE|DICT|INTERRES
   115   59   60 1    
   116   59  125 1    
   117   60   61 1    
   118   60   62 1    
   119   60  126 1    
   120   61  127 1    
   121   61  128 1    
   122   61  129 1    
   123   62   63 2    
   124   62   64 am   BACKBONE|DICT|INTERRES
   125   64   65 1    
   126   64  130 1    
   127   65   66 1    
   128   65   69 1    
   129   65  131 1    
   130   66   67 am   BACKBONE|DICT|INTERRES
   131   66   68 2    
   132   67  132 1    
   133   67  133 1    
   134   69   70 1    
   135   69  134 1    
   136   69  135 1    
   137   70   71 1    
   138   71  136 1    
   139   71  137 1    
@<TRIPOS>SUBSTRUCTURE
     1 UNK         1 GROUP             0       ****    0 ROOT    
