@<TRIPOS>MOLECULE
3R137
137   139    1
SMALL
USER_CHARGES


@<TRIPOS>ATOM
      1 CA         24.7489   -6.1675    0.2565 C.3       0 UNK        -0.2020 
      2 C          24.3537   -5.6159   -1.1117 C.2       0 UNK         0.4855 
      3 O          23.3290   -6.0306   -1.6498 O.2       0 UNK        -0.5197 
      4 N          25.1101   -4.6931   -1.7174 N.am      1 UNK        -0.4892 
      5 CA         26.3386   -4.0590   -1.2427 C.3       1 UNK         0.0835 
      6 C6         27.5622   -5.0151   -1.3013 C.3       12 UNK        -0.0855 
      7 S7         28.9763   -4.4321   -0.2956 S.3       12 UNK        -0.2931 
      8 C8         30.4244   -4.9144   -1.2970 C.3       12 UNK         0.0378 
      9 C9         30.4829   -4.1893   -2.6356 C.ar      12 UNK        -0.0802 
     10 C10        30.9600   -2.8773   -2.7178 C.ar      12 UNK        -0.0944 
     11 C11        30.9925   -2.2039   -3.9450 C.ar      12 UNK        -0.0787 
     12 C12        30.5444   -2.8643   -5.0947 C.ar      12 UNK        -0.0862 
     13 C13        30.0675   -4.1781   -5.0272 C.ar      12 UNK        -0.0733 
     14 C14        30.0576   -4.8375   -3.7969 C.ar      12 UNK        -0.0832 
     15 C15        29.5345   -4.8983   -6.2624 C.3       12 UNK         0.0240 
     16 S16        28.3621   -3.9253   -7.2699 S.3       12 UNK        -0.2522 
     17 C17        27.2826   -3.1034   -6.0406 C.3       12 UNK        -0.0967 
     18 CA         26.6184   -1.8090   -6.5754 C.3       5 UNK         0.0660 
     19 N          25.5544   -1.3767   -5.6694 N.am      5 UNK        -0.4015 
     20 C          24.4880   -0.6581   -6.0459 C.2       4 UNK         0.4946 
     21 O          24.3809   -0.1209   -7.1489 O.2       4 UNK        -0.5353 
     22 CA         23.3280   -0.5544   -5.0431 C.3       4 UNK         0.0277 
     23 CB         22.5229   -1.8650   -5.0165 C.3       4 UNK        -0.1981 
     24 N          23.8160   -0.2606   -3.6970 N.am      4 UNK        -0.4209 
     25 C          23.6732    0.9186   -3.0767 C.2       3 UNK         0.4942 
     26 O          22.9931    1.8494   -3.5111 O.2       3 UNK        -0.5208 
     27 CA         24.4373    1.1106   -1.7509 C.3       3 UNK         0.0250 
     28 CB         23.5197    0.8066   -0.5554 C.3       3 UNK        -0.1990 
     29 N          25.6652    0.3145   -1.6297 N.am      3 UNK        -0.4232 
     30 C          26.6844    0.3174   -2.5017 C.2       2 UNK         0.4993 
     31 O          26.7052    0.9897   -3.5291 O.2       2 UNK        -0.5286 
     32 CA         27.8469   -0.6473   -2.2286 C.3       2 UNK         0.0209 
     33 CB         28.9133    0.0402   -1.3611 C.3       2 UNK        -0.1931 
     34 N          27.4451   -1.9082   -1.5992 N.am      2 UNK        -0.4546 
     35 C          26.5393   -2.7750   -2.0713 C.2       1 UNK         0.5154 
     36 O          25.8669   -2.5788   -3.0930 O.2       1 UNK        -0.5181 
     37 C          27.6454   -0.7070   -6.9275 C.2       5 UNK         0.5014 
     38 O          28.2479   -0.8013   -7.9983 O.2       5 UNK        -0.5248 
     39 N          27.8474    0.3174   -6.0791 N.am      6 UNK        -0.4434 
     40 CA         28.9135    1.3201   -6.2565 C.3       6 UNK         0.0363 
     41 CB         28.9285    2.3234   -5.0929 C.3       6 UNK        -0.1936 
     42 C          28.8726    2.0846   -7.5869 C.2       6 UNK         0.5081 
     43 O          29.9334    2.3730   -8.1400 O.2       6 UNK        -0.5248 
     44 N          27.6627    2.3673   -8.0853 N.am      7 UNK        -0.4718 
     45 CA         27.4328    3.0318   -9.3698 C.3       7 UNK         0.0273 
     46 CB         25.9826    3.5391   -9.4188 C.3       7 UNK        -0.1935 
     47 C          27.7290    2.1353  -10.5859 C.2       7 UNK         0.5018 
     48 O          28.0406    2.6636  -11.6536 O.2       7 UNK        -0.5186 
     49 N          27.6209    0.8108  -10.4139 N.am      8 UNK        -0.4240 
     50 CA         27.8928   -0.1841  -11.4516 C.3       8 UNK         0.0235 
     51 CB         26.9944   -1.4140  -11.2342 C.3       8 UNK        -0.2000 
     52 C          29.3738   -0.5852  -11.4569 C.2       8 UNK         0.4941 
     53 O          29.9836   -0.6442  -12.5250 O.2       8 UNK        -0.5273 
     54 N          29.9245   -0.8475  -10.2644 N.am      9 UNK        -0.4262 
     55 CA         31.3151   -1.2569  -10.0588 C.3       9 UNK         0.0264 
     56 CB         31.4291   -1.9219   -8.6814 C.3       9 UNK        -0.1955 
     57 C          32.3262   -0.1032  -10.1666 C.2       9 UNK         0.5031 
     58 O          33.5113   -0.3760  -10.3632 O.2       9 UNK        -0.5390 
     59 N          31.8533    1.1433  -10.0142 N.am      10 UNK        -0.4204 
     60 CA         32.6280    2.3859   -9.9308 C.3       10 UNK         0.0237 
     61 CB         33.3948    2.6685  -11.2414 C.3       10 UNK        -0.1985 
     62 C          33.5188    2.4090   -8.6742 C.2       10 UNK         0.4970 
     63 O          34.7224    2.6567   -8.7722 O.2       10 UNK        -0.4914 
     64 N          32.9025    2.1439   -7.5129 N.am      11 UNK        -0.4285 
     65 CA         33.5655    2.1805   -6.1958 C.3       11 UNK         0.1007 
     66 C          33.9482    3.6113   -5.7127 C.2       11 UNK         0.5703 
     67 N          33.3927    4.6778   -6.2775 N.am      11 UNK        -0.7361 
     68 O          34.7698    3.7544   -4.8103 O.2       11 UNK        -0.4986 
     69 C69        32.7517    1.4450   -5.0975 C.3       12 UNK        -0.0947 
     70 S70        32.5092   -0.3329   -5.4154 S.3       12 UNK        -0.2240 
     71 C71        31.4388   -0.7446   -3.9957 C.3       12 UNK         0.0194 
     72 H72        25.2702   -5.4405    0.8759 H         1 UNK         0.0906 
     73 H73        23.8591   -6.4758    0.8049 H         1 UNK         0.0906 
     74 H74        25.3853   -7.0439    0.1394 H         1 UNK         0.0906 
     75 H75        24.8080   -4.3109   -2.6065 H         1 UNK         0.3140 
     76 H76        26.1768   -3.7336   -0.2137 H         1 UNK         0.1085 
     77 H77        27.8550   -5.1839   -2.3363 H         1 UNK         0.0836 
     78 H78        27.2982   -5.9999   -0.9168 H         1 UNK         0.0836 
     79 H79        31.3306   -4.6969   -0.7296 H         1 UNK         0.0731 
     80 H80        30.4134   -5.9956   -1.4440 H         1 UNK         0.0731 
     81 H81        31.2878   -2.3765   -1.8173 H         1 UNK         0.1312 
     82 H82        30.5327   -2.3455   -6.0406 H         1 UNK         0.1406 
     83 H83        29.6952   -5.8549   -3.7375 H         1 UNK         0.1631 
     84 H84        29.0347   -5.8253   -5.9774 H         1 UNK         0.0717 
     85 H85        30.3777   -5.1866   -6.8911 H         1 UNK         0.0717 
     86 H86        26.5147   -3.8263   -5.7599 H         1 UNK         0.0934 
     87 H87        27.8227   -2.8819   -5.1210 H         1 UNK         0.0934 
     88 H88        26.1361   -2.0735   -7.5196 H         1 UNK         0.0739 
     89 H89        25.5795   -1.7850   -4.7386 H         1 UNK         0.3093 
     90 H90        22.6638    0.2391   -5.3925 H         1 UNK         0.0818 
     91 H91        21.6539   -1.7795   -4.3639 H         1 UNK         0.0819 
     92 H92        22.1557   -2.1181   -6.0121 H         1 UNK         0.0819 
     93 H93        23.1222   -2.7059   -4.6648 H         1 UNK         0.0819 
     94 H94        24.4041   -0.9595   -3.2604 H         1 UNK         0.3041 
     95 H95        24.7304    2.1613   -1.7007 H         1 UNK         0.0784 
     96 H96        22.6070    1.4027   -0.6022 H         1 UNK         0.0793 
     97 H97        23.2224   -0.2426   -0.5313 H         1 UNK         0.0793 
     98 H98        24.0076    1.0410    0.3909 H         1 UNK         0.0793 
     99 H99        25.7398   -0.2825   -0.8190 H         1 UNK         0.3024 
    100 H100       28.2936   -0.8987   -3.1928 H         1 UNK         0.1171 
    101 H101       29.2598    0.9653   -1.8237 H         1 UNK         0.0786 
    102 H102       29.7866   -0.5954   -1.2214 H         1 UNK         0.0786 
    103 H103       28.5268    0.2958   -0.3737 H         1 UNK         0.0786 
    104 H104       27.9711   -2.1851   -0.7805 H         1 UNK         0.2977 
    105 H105       27.2877    0.4007   -5.2332 H         1 UNK         0.3127 
    106 H106       29.8579    0.7748   -6.2449 H         1 UNK         0.0770 
    107 H107       27.9713    2.8364   -4.9930 H         1 UNK         0.0814 
    108 H108       29.6890    3.0913   -5.2418 H         1 UNK         0.0814 
    109 H109       29.1500    1.8353   -4.1455 H         1 UNK         0.0814 
    110 H110       26.8484    2.0767   -7.5623 H         1 UNK         0.2983 
    111 H111       28.1003    3.8945   -9.4321 H         1 UNK         0.0947 
    112 H112       25.7824    4.0598  -10.3564 H         1 UNK         0.0806 
    113 H113       25.7804    4.2421   -8.6105 H         1 UNK         0.0806 
    114 H114       25.2654    2.7207   -9.3405 H         1 UNK         0.0806 
    115 H115       27.4358    0.4561   -9.4832 H         1 UNK         0.3000 
    116 H116       27.6535    0.2368  -12.4308 H         1 UNK         0.0850 
    117 H117       27.1667   -2.1628  -12.0085 H         1 UNK         0.0810 
    118 H118       25.9390   -1.1442  -11.2737 H         1 UNK         0.0810 
    119 H119       27.1806   -1.8929  -10.2719 H         1 UNK         0.0810 
    120 H120       29.3323   -0.8107   -9.4343 H         1 UNK         0.3040 
    121 H121       31.5763   -1.9956  -10.8196 H         1 UNK         0.0766 
    122 H122       30.7993   -2.8085   -8.6156 H         1 UNK         0.0812 
    123 H123       32.4533   -2.2335   -8.4716 H         1 UNK         0.0812 
    124 H124       31.1271   -1.2318   -7.8943 H         1 UNK         0.0812 
    125 H125       30.8704    1.2443   -9.7917 H         1 UNK         0.3205 
    126 H126       31.9020    3.1905   -9.8050 H         1 UNK         0.0754 
    127 H127       33.8610    3.6541  -11.2126 H         1 UNK         0.0769 
    128 H128       32.7262    2.6511  -12.1022 H         1 UNK         0.0769 
    129 H129       34.1883    1.9421  -11.4183 H         1 UNK         0.0769 
    130 H130       31.9010    1.9927   -7.5215 H         1 UNK         0.2981 
    131 H131       34.5114    1.6459   -6.3031 H         1 UNK         0.0541 
    132 H132       32.7140    4.5733   -7.0139 H         1 UNK         0.3459 
    133 H133       33.6536    5.5969   -5.9571 H         1 UNK         0.3459 
    134 H134       31.7777    1.9175   -4.9720 H         1 UNK         0.0612 
    135 H135       33.2552    1.5271   -4.1321 H         1 UNK         0.0612 
    136 H136       31.9698   -0.4806   -3.0798 H         1 UNK         0.0624 
    137 H137       30.5487   -0.1178   -4.0298 H         1 UNK         0.0624 
@<TRIPOS>BOND
     1    1    2 1    
     2    1   72 1    
     3    1   73 1    
     4    1   74 1    
     5    2    3 2    
     6    2    4 am   BACKBONE|DICT|INTERRES
     7    4    5 1    
     8    4   75 1    
     9    5    6 1    
    10    5   35 1    
    11    5   76 1    
    12    6    7 1    
    13    6   77 1    
    14    6   78 1    
    15    7    8 1    
    16    8    9 1    
    17    8   79 1    
    18    8   80 1    
    19    9   10 ar   
    20    9   14 ar   
    21   10   11 ar   
    22   10   81 1    
    23   11   12 ar   
    24   11   71 1    
    25   12   13 ar   
    26   12   82 1    
    27   13   14 ar   
    28   13   15 1    
    29   14   83 1    
    30   15   16 1    
    31   15   84 1    
    32   15   85 1    
    33   16   17 1    
    34   17   18 1    
    35   17   86 1    
    36   17   87 1    
    37   18   19 1    
    38   18   37 1    
    39   18   88 1    
    40   19   20 am   BACKBONE|DICT|INTERRES
    41   19   89 1    
    42   20   21 2    
    43   20   22 1    
    44   22   23 1    
    45   22   24 1    
    46   22   90 1    
    47   23   91 1    
    48   23   92 1    
    49   23   93 1    
    50   24   25 am   BACKBONE|DICT|INTERRES
    51   24   94 1    
    52   25   26 2    
    53   25   27 1    
    54   27   28 1    
    55   27   29 1    
    56   27   95 1    
    57   28   96 1    
    58   28   97 1    
    59   28   98 1    
    60   29   30 am   BACKBONE|DICT|INTERRES
    61   29   99 1    
    62   30   31 2    
    63   30   32 1    
    64   32   33 1    
    65   32   34 1    
    66   32  100 1    
    67   33  101 1    
    68   33  102 1    
    69   33  103 1    
    70   34   35 am   BACKBONE|DICT|INTERRES
    71   34  104 1    
    72   35   36 2    
    73   37   38 2    
    74   37   39 am   BACKBONE|DICT|INTERRES
    75   39   40 1    
    76   39  105 1    
    77   40   41 1    
    78   40   42 1    
    79   40  106 1    
    80   41  107 1    
    81   41  108 1    
    82   41  109 1    
    83   42   43 2    
    84   42   44 am   BACKBONE|DICT|INTERRES
    85   44   45 1    
    86   44  110 1    
    87   45   46 1    
    88   45   47 1    
    89   45  111 1    
    90   46  112 1    
    91   46  113 1    
    92   46  114 1    
    93   47   48 2    
    94   47   49 am   BACKBONE|DICT|INTERRES
    95   49   50 1    
    96   49  115 1    
    97   50   51 1    
    98   50   52 1    
    99   50  116 1    
   100   51  117 1    
   101   51  118 1    
   102   51  119 1    
   103   52   53 2    
   104   52   54 am   BACKBONE|DICT|INTERRES
   105   54   55 1    
   106   54  120 1    
   107   55   56 1    
   108   55   57 1    
   109   55  121 1    
   110   56  122 1    
   111   56  123 1    
   112   56  124 1    
   113   57   58 2    
   114   57   59 am   BACKBONE|DICT|INTERRES
   115   59   60 1    
   116   59  125 1    
   117   60   61 1    
   118   60   62 1    
   119   60  126 1    
   120   61  127 1    
   121   61  128 1    
   122   61  129 1    
   123   62   63 2    
   124   62   64 am   BACKBONE|DICT|INTERRES
   125   64   65 1    
   126   64  130 1    
   127   65   66 1    
   128   65   69 1    
   129   65  131 1    
   130   66   67 am   BACKBONE|DICT|INTERRES
   131   66   68 2    
   132   67  132 1    
   133   67  133 1    
   134   69   70 1    
   135   69  134 1    
   136   69  135 1    
   137   70   71 1    
   138   71  136 1    
   139   71  137 1    
@<TRIPOS>SUBSTRUCTURE
     1 UNK         1 GROUP             0       ****    0 ROOT    
