@<TRIPOS>MOLECULE
3R137
137   139    1
SMALL
USER_CHARGES


@<TRIPOS>ATOM
      1 CA         24.6645   -6.2498    0.6544 C.3       0 UNK        -0.2020 
      2 C          25.4742   -5.0271    0.2510 C.2       0 UNK         0.4855 
      3 O          25.3784   -3.9854    0.9003 O.2       0 UNK        -0.5197 
      4 N          26.2593   -5.1332   -0.8284 N.am      1 UNK        -0.4892 
      5 CA         27.1498   -4.0918   -1.3632 C.3       1 UNK         0.0835 
      6 C6         28.3086   -4.7207   -2.1839 C.3       12 UNK        -0.0855 
      7 S7         29.5865   -5.3952   -1.0720 S.3       12 UNK        -0.2931 
      8 C8         31.1298   -4.8524   -1.8897 C.3       12 UNK         0.0378 
      9 C9         31.2714   -3.3462   -2.1324 C.ar      12 UNK        -0.0802 
     10 C10        32.0574   -2.9187   -3.2067 C.ar      12 UNK        -0.0944 
     11 C11        32.2523   -1.5585   -3.4556 C.ar      12 UNK        -0.0787 
     12 C12        31.6410   -0.6131   -2.6295 C.ar      12 UNK        -0.0862 
     13 C13        30.8351   -1.0172   -1.5599 C.ar      12 UNK        -0.0733 
     14 C14        30.6694   -2.3851   -1.3074 C.ar      12 UNK        -0.0832 
     15 C15        30.1757    0.0138   -0.6457 C.3       12 UNK         0.0240 
     16 S16        29.3769    1.3976   -1.5353 S.3       12 UNK        -0.2522 
     17 C17        28.0672    0.5480   -2.4766 C.3       12 UNK        -0.0967 
     18 CA         28.2139    0.7417   -4.0098 C.3       5 UNK         0.0660 
     19 N          27.7356   -0.4297   -4.7470 N.am      5 UNK        -0.4015 
     20 C          27.8337   -0.6202   -6.0698 C.2       4 UNK         0.4946 
     21 O          28.2920    0.2087   -6.8557 O.2       4 UNK        -0.5353 
     22 CA         27.3093   -1.9580   -6.6079 C.3       4 UNK         0.0277 
     23 CB         28.3461   -3.0711   -6.3802 C.3       4 UNK        -0.1981 
     24 N          26.0420   -2.3181   -5.9714 N.am      4 UNK        -0.4209 
     25 C          24.8367   -1.9579   -6.4333 C.2       3 UNK         0.4942 
     26 O          24.6597   -1.3665   -7.4981 O.2       3 UNK        -0.5208 
     27 CA         23.6153   -2.2978   -5.5578 C.3       3 UNK         0.0250 
     28 CB         23.0648   -3.6866   -5.9196 C.3       3 UNK        -0.1990 
     29 N          23.8749   -2.2387   -4.1157 N.am      3 UNK        -0.4232 
     30 C          24.2540   -1.1378   -3.4518 C.2       2 UNK         0.4993 
     31 O          24.4415   -0.0439   -3.9824 O.2       2 UNK        -0.5286 
     32 CA         24.5310   -1.2900   -1.9478 C.3       2 UNK         0.0209 
     33 CB         23.2158   -1.2449   -1.1538 C.3       2 UNK        -0.1931 
     34 N          25.2975   -2.4792   -1.5502 N.am      2 UNK        -0.4546 
     35 C          26.3922   -2.9870   -2.1349 C.2       1 UNK         0.5154 
     36 O          26.8190   -2.5981   -3.2230 O.2       1 UNK        -0.5181 
     37 C          27.5602    2.0562   -4.4885 C.2       5 UNK         0.5014 
     38 O          28.2669    3.0456   -4.6867 O.2       5 UNK        -0.5248 
     39 N          26.2333    2.0404   -4.6937 N.am      6 UNK        -0.4434 
     40 CA         25.4698    3.1811   -5.2070 C.3       6 UNK         0.0363 
     41 CB         23.9772    2.9851   -4.8973 C.3       6 UNK        -0.1936 
     42 C          25.6747    3.4154   -6.7131 C.2       6 UNK         0.5081 
     43 O          25.5678    4.5583   -7.1589 O.2       6 UNK        -0.5248 
     44 N          25.9568    2.3460   -7.4721 N.am      7 UNK        -0.4718 
     45 CA         26.2571    2.4143   -8.9050 C.3       7 UNK         0.0273 
     46 CB         26.1110    1.0212   -9.5381 C.3       7 UNK        -0.1935 
     47 C          27.6551    2.9892   -9.1788 C.2       7 UNK         0.5018 
     48 O          27.8298    3.6993  -10.1699 O.2       7 UNK        -0.5186 
     49 N          28.6201    2.6619   -8.3060 N.am      8 UNK        -0.4240 
     50 CA         30.0271    3.0836   -8.2711 C.3       8 UNK         0.0235 
     51 CB         30.1622    4.6129   -8.1437 C.3       8 UNK        -0.2000 
     52 C          30.8800    2.5381   -9.4280 C.2       8 UNK         0.4941 
     53 O          31.9660    2.0193   -9.1765 O.2       8 UNK        -0.5273 
     54 N          30.3712    2.6094  -10.6653 N.am      9 UNK        -0.4262 
     55 CA         30.9911    2.0539  -11.8746 C.3       9 UNK         0.0264 
     56 CB         30.1533    2.4456  -13.1018 C.3       9 UNK        -0.1955 
     57 C          31.1801    0.5269  -11.8132 C.2       9 UNK         0.5031 
     58 O          32.1418    0.0088  -12.3821 O.2       9 UNK        -0.5390 
     59 N          30.2913   -0.1548  -11.0763 N.am      10 UNK        -0.4204 
     60 CA         30.3528   -1.5835  -10.7596 C.3       10 UNK         0.0237 
     61 CB         29.0794   -1.9708   -9.9929 C.3       10 UNK        -0.1985 
     62 C          31.6019   -1.9941   -9.9553 C.2       10 UNK         0.4970 
     63 O          32.0077   -3.1537  -10.0398 O.2       10 UNK        -0.4914 
     64 N          32.1910   -1.0507   -9.2083 N.am      11 UNK        -0.4285 
     65 CA         33.4550   -1.2286   -8.4806 C.3       11 UNK         0.1007 
     66 C          34.7193   -1.0881   -9.3803 C.2       11 UNK         0.5703 
     67 N          34.6084   -0.7314  -10.6562 N.am      11 UNK        -0.7361 
     68 O          35.8306   -1.3253   -8.9126 O.2       11 UNK        -0.4986 
     69 C69        33.5333   -0.2970   -7.2421 C.3       12 UNK        -0.0947 
     70 S70        32.1840   -0.6009   -6.0498 S.3       12 UNK        -0.2240 
     71 C71        33.1492   -1.1117   -4.5978 C.3       12 UNK         0.0194 
     72 H72        23.5998   -6.0189    0.6322 H         1 UNK         0.0906 
     73 H73        24.8427   -7.0951   -0.0100 H         1 UNK         0.0906 
     74 H74        24.9261   -6.5542    1.6674 H         1 UNK         0.0906 
     75 H75        26.2801   -6.0107   -1.3289 H         1 UNK         0.3140 
     76 H76        27.5936   -3.5651   -0.5150 H         1 UNK         0.1085 
     77 H77        28.7858   -3.9922   -2.8399 H         1 UNK         0.0836 
     78 H78        27.9433   -5.5095   -2.8435 H         1 UNK         0.0836 
     79 H79        31.2061   -5.3868   -2.8382 H         1 UNK         0.0731 
     80 H80        31.9744   -5.1829   -1.2839 H         1 UNK         0.0731 
     81 H81        32.5350   -3.6494   -3.8456 H         1 UNK         0.1312 
     82 H82        31.7948    0.4400   -2.8215 H         1 UNK         0.1406 
     83 H83        30.0744   -2.7010   -0.4622 H         1 UNK         0.1631 
     84 H84        30.9377    0.4227    0.0189 H         1 UNK         0.0717 
     85 H85        29.4307   -0.4595   -0.0040 H         1 UNK         0.0717 
     86 H86        28.1183   -0.5110   -2.2247 H         1 UNK         0.0934 
     87 H87        27.0937    0.8850   -2.1166 H         1 UNK         0.0934 
     88 H88        29.2781    0.8100   -4.2476 H         1 UNK         0.0739 
     89 H89        27.3569   -1.1893   -4.1853 H         1 UNK         0.3093 
     90 H90        27.1553   -1.8538   -7.6833 H         1 UNK         0.0818 
     91 H91        28.5376   -3.2407   -5.3200 H         1 UNK         0.0819 
     92 H92        28.0155   -4.0139   -6.8158 H         1 UNK         0.0819 
     93 H93        29.3002   -2.8158   -6.8441 H         1 UNK         0.0819 
     94 H94        26.1031   -2.7393   -5.0500 H         1 UNK         0.3041 
     95 H95        22.8442   -1.5569   -5.7798 H         1 UNK         0.0784 
     96 H96        22.8396   -3.7513   -6.9852 H         1 UNK         0.0793 
     97 H97        23.7797   -4.4775   -5.6890 H         1 UNK         0.0793 
     98 H98        22.1406   -3.9003   -5.3821 H         1 UNK         0.0793 
     99 H99        23.7720   -3.0974   -3.5946 H         1 UNK         0.3024 
    100 H100       25.1254   -0.4246   -1.6510 H         1 UNK         0.1171 
    101 H101       23.4019   -1.2034   -0.0803 H         1 UNK         0.0786 
    102 H102       22.6306   -0.3612   -1.4131 H         1 UNK         0.0786 
    103 H103       22.5941   -2.1189   -1.3518 H         1 UNK         0.0786 
    104 H104       25.0609   -2.8802   -0.6463 H         1 UNK         0.2977 
    105 H105       25.6988    1.1967   -4.4876 H         1 UNK         0.3127 
    106 H106       25.8065    4.0795   -4.6849 H         1 UNK         0.0770 
    107 H107       23.5701    2.1131   -5.4110 H         1 UNK         0.0814 
    108 H108       23.3958    3.8515   -5.2154 H         1 UNK         0.0814 
    109 H109       23.8066    2.8539   -3.8287 H         1 UNK         0.0814 
    110 H110       26.0429    1.4433   -7.0267 H         1 UNK         0.2983 
    111 H111       25.5301    3.0787   -9.3780 H         1 UNK         0.0947 
    112 H112       26.3134    1.0556  -10.6094 H         1 UNK         0.0806 
    113 H113       25.0991    0.6353   -9.4136 H         1 UNK         0.0806 
    114 H114       26.7986    0.2981   -9.0994 H         1 UNK         0.0806 
    115 H115       28.3762    1.9717   -7.5981 H         1 UNK         0.3000 
    116 H116       30.4311    2.6447   -7.3567 H         1 UNK         0.0850 
    117 H117       31.2066    4.9004   -8.0162 H         1 UNK         0.0810 
    118 H118       29.6151    4.9846   -7.2771 H         1 UNK         0.0810 
    119 H119       29.7884    5.1340   -9.0254 H         1 UNK         0.0810 
    120 H120       29.4650    3.0631  -10.7652 H         1 UNK         0.3040 
    121 H121       31.9817    2.5025  -11.9741 H         1 UNK         0.0766 
    122 H122       30.0851    3.5286  -13.2058 H         1 UNK         0.0812 
    123 H123       29.1385    2.0500  -13.0418 H         1 UNK         0.0812 
    124 H124       30.6010    2.0606  -14.0193 H         1 UNK         0.0812 
    125 H125       29.5428    0.3694  -10.6486 H         1 UNK         0.3205 
    126 H126       30.3742   -2.1334  -11.7027 H         1 UNK         0.0754 
    127 H127       29.0779   -3.0322   -9.7402 H         1 UNK         0.0769 
    128 H128       28.1822   -1.7767  -10.5811 H         1 UNK         0.0769 
    129 H129       28.9998   -1.4116   -9.0606 H         1 UNK         0.0769 
    130 H130       31.8265   -0.1059   -9.2109 H         1 UNK         0.2981 
    131 H131       33.4821   -2.2538   -8.1066 H         1 UNK         0.0541 
    132 H132       33.7061   -0.5379  -11.0730 H         1 UNK         0.3459 
    133 H133       35.4426   -0.6549  -11.2158 H         1 UNK         0.3459 
    134 H134       34.4904   -0.4229   -6.7330 H         1 UNK         0.0612 
    135 H135       33.4978    0.7502   -7.5426 H         1 UNK         0.0612 
    136 H136       33.7751   -0.2799   -4.2709 H         1 UNK         0.0624 
    137 H137       33.8278   -1.9175   -4.8826 H         1 UNK         0.0624 
@<TRIPOS>BOND
     1    1    2 1    
     2    1   72 1    
     3    1   73 1    
     4    1   74 1    
     5    2    3 2    
     6    2    4 am   BACKBONE|DICT|INTERRES
     7    4    5 1    
     8    4   75 1    
     9    5    6 1    
    10    5   35 1    
    11    5   76 1    
    12    6    7 1    
    13    6   77 1    
    14    6   78 1    
    15    7    8 1    
    16    8    9 1    
    17    8   79 1    
    18    8   80 1    
    19    9   10 ar   
    20    9   14 ar   
    21   10   11 ar   
    22   10   81 1    
    23   11   12 ar   
    24   11   71 1    
    25   12   13 ar   
    26   12   82 1    
    27   13   14 ar   
    28   13   15 1    
    29   14   83 1    
    30   15   16 1    
    31   15   84 1    
    32   15   85 1    
    33   16   17 1    
    34   17   18 1    
    35   17   86 1    
    36   17   87 1    
    37   18   19 1    
    38   18   37 1    
    39   18   88 1    
    40   19   20 am   BACKBONE|DICT|INTERRES
    41   19   89 1    
    42   20   21 2    
    43   20   22 1    
    44   22   23 1    
    45   22   24 1    
    46   22   90 1    
    47   23   91 1    
    48   23   92 1    
    49   23   93 1    
    50   24   25 am   BACKBONE|DICT|INTERRES
    51   24   94 1    
    52   25   26 2    
    53   25   27 1    
    54   27   28 1    
    55   27   29 1    
    56   27   95 1    
    57   28   96 1    
    58   28   97 1    
    59   28   98 1    
    60   29   30 am   BACKBONE|DICT|INTERRES
    61   29   99 1    
    62   30   31 2    
    63   30   32 1    
    64   32   33 1    
    65   32   34 1    
    66   32  100 1    
    67   33  101 1    
    68   33  102 1    
    69   33  103 1    
    70   34   35 am   BACKBONE|DICT|INTERRES
    71   34  104 1    
    72   35   36 2    
    73   37   38 2    
    74   37   39 am   BACKBONE|DICT|INTERRES
    75   39   40 1    
    76   39  105 1    
    77   40   41 1    
    78   40   42 1    
    79   40  106 1    
    80   41  107 1    
    81   41  108 1    
    82   41  109 1    
    83   42   43 2    
    84   42   44 am   BACKBONE|DICT|INTERRES
    85   44   45 1    
    86   44  110 1    
    87   45   46 1    
    88   45   47 1    
    89   45  111 1    
    90   46  112 1    
    91   46  113 1    
    92   46  114 1    
    93   47   48 2    
    94   47   49 am   BACKBONE|DICT|INTERRES
    95   49   50 1    
    96   49  115 1    
    97   50   51 1    
    98   50   52 1    
    99   50  116 1    
   100   51  117 1    
   101   51  118 1    
   102   51  119 1    
   103   52   53 2    
   104   52   54 am   BACKBONE|DICT|INTERRES
   105   54   55 1    
   106   54  120 1    
   107   55   56 1    
   108   55   57 1    
   109   55  121 1    
   110   56  122 1    
   111   56  123 1    
   112   56  124 1    
   113   57   58 2    
   114   57   59 am   BACKBONE|DICT|INTERRES
   115   59   60 1    
   116   59  125 1    
   117   60   61 1    
   118   60   62 1    
   119   60  126 1    
   120   61  127 1    
   121   61  128 1    
   122   61  129 1    
   123   62   63 2    
   124   62   64 am   BACKBONE|DICT|INTERRES
   125   64   65 1    
   126   64  130 1    
   127   65   66 1    
   128   65   69 1    
   129   65  131 1    
   130   66   67 am   BACKBONE|DICT|INTERRES
   131   66   68 2    
   132   67  132 1    
   133   67  133 1    
   134   69   70 1    
   135   69  134 1    
   136   69  135 1    
   137   70   71 1    
   138   71  136 1    
   139   71  137 1    
@<TRIPOS>SUBSTRUCTURE
     1 UNK         1 GROUP             0       ****    0 ROOT    
