@<TRIPOS>MOLECULE
3R137
137   139    1
SMALL
USER_CHARGES


@<TRIPOS>ATOM
      1 CA         27.1582   -2.6264    2.2718 C.3       0 UNK        -0.2020 
      2 C          27.5952   -3.6214    1.2002 C.2       0 UNK         0.4855 
      3 O          27.4298   -4.8245    1.3901 O.2       0 UNK        -0.5197 
      4 N          28.1582   -3.1835    0.0650 N.am      1 UNK        -0.4892 
      5 CA         28.3884   -1.7853   -0.3311 C.3       1 UNK         0.0835 
      6 C6         29.4637   -1.6732   -1.4396 C.3       12 UNK        -0.0855 
      7 S7         31.1150   -2.1828   -0.8580 S.3       12 UNK        -0.2931 
      8 C8         31.2413   -3.8924   -1.4742 C.3       12 UNK         0.0378 
      9 C9         31.3097   -3.9710   -2.9937 C.ar      12 UNK        -0.0802 
     10 C10        32.4106   -3.4405   -3.6724 C.ar      12 UNK        -0.0944 
     11 C11        32.5169   -3.5632   -5.0603 C.ar      12 UNK        -0.0787 
     12 C12        31.5121   -4.2275   -5.7703 C.ar      12 UNK        -0.0862 
     13 C13        30.4014   -4.7582   -5.1049 C.ar      12 UNK        -0.0733 
     14 C14        30.3029   -4.6205   -3.7165 C.ar      12 UNK        -0.0832 
     15 C15        29.3470   -5.5424   -5.8767 C.3       12 UNK         0.0240 
     16 S16        28.5294   -4.5529   -7.1660 S.3       12 UNK        -0.2522 
     17 C17        27.3104   -3.6003   -6.2000 C.3       12 UNK        -0.0967 
     18 CA         26.7514   -2.4152   -7.0284 C.3       5 UNK         0.0660 
     19 N          25.4003   -2.0308   -6.6208 N.am      5 UNK        -0.4015 
     20 C          24.3703   -1.8775   -7.4665 C.2       4 UNK         0.4946 
     21 O          24.4060   -2.1841   -8.6586 O.2       4 UNK        -0.5353 
     22 CA         23.0723   -1.2616   -6.9093 C.3       4 UNK         0.0277 
     23 CB         22.0673   -2.3677   -6.5486 C.3       4 UNK        -0.1981 
     24 N          23.2631   -0.3896   -5.7478 N.am      4 UNK        -0.4209 
     25 C          24.0349    0.7063   -5.7095 C.2       3 UNK         0.4942 
     26 O          24.6727    1.1385   -6.6689 O.2       3 UNK        -0.5208 
     27 CA         24.1796    1.3952   -4.3434 C.3       3 UNK         0.0250 
     28 CB         23.0833    2.4566   -4.1622 C.3       3 UNK        -0.1990 
     29 N          24.1727    0.4789   -3.1938 N.am      3 UNK        -0.4232 
     30 C          24.9681   -0.5892   -3.0307 C.2       2 UNK         0.4993 
     31 O          25.7642   -0.9997   -3.8817 O.2       2 UNK        -0.5286 
     32 CA         24.8054   -1.3677   -1.7170 C.3       2 UNK         0.0209 
     33 CB         23.8564   -2.5593   -1.9222 C.3       2 UNK        -0.1931 
     34 N          26.0911   -1.8606   -1.2204 N.am      2 UNK        -0.4546 
     35 C          27.0892   -1.0824   -0.7768 C.2       1 UNK         0.5154 
     36 O          27.0080    0.1430   -0.6857 O.2       1 UNK        -0.5181 
     37 C          27.6825   -1.1930   -6.9728 C.2       5 UNK         0.5014 
     38 O          28.4101   -0.9520   -7.9353 O.2       5 UNK        -0.5248 
     39 N          27.6413   -0.4331   -5.8676 N.am      6 UNK        -0.4434 
     40 CA         28.5718    0.6592   -5.5742 C.3       6 UNK         0.0363 
     41 CB         28.3204    1.1939   -4.1574 C.3       6 UNK        -0.1936 
     42 C          28.5610    1.8066   -6.5952 C.2       6 UNK         0.5081 
     43 O          29.6311    2.3361   -6.8938 O.2       6 UNK        -0.5248 
     44 N          27.3837    2.1640   -7.1263 N.am      7 UNK        -0.4718 
     45 CA         27.2576    3.1835   -8.1720 C.3       7 UNK         0.0273 
     46 CB         25.8715    3.8429   -8.0900 C.3       7 UNK        -0.1935 
     47 C          27.4948    2.6045   -9.5759 C.2       7 UNK         0.5018 
     48 O          27.9784    3.3259  -10.4478 O.2       7 UNK        -0.5186 
     49 N          27.1506    1.3239   -9.7731 N.am      8 UNK        -0.4240 
     50 CA         27.2659    0.6162  -11.0500 C.3       8 UNK         0.0235 
     51 CB         26.3886   -0.6459  -11.0212 C.3       8 UNK        -0.2000 
     52 C          28.7198    0.2636  -11.3969 C.2       8 UNK         0.4941 
     53 O          29.1603    0.5329  -12.5148 O.2       8 UNK        -0.5273 
     54 N          29.4392   -0.3202  -10.4301 N.am      9 UNK        -0.4262 
     55 CA         30.8473   -0.7052  -10.5507 C.3       9 UNK         0.0264 
     56 CB         31.1022   -1.9237   -9.6468 C.3       9 UNK        -0.1955 
     57 C          31.8139    0.4429  -10.2052 C.2       9 UNK         0.5031 
     58 O          33.0180    0.2870  -10.4116 O.2       9 UNK        -0.5390 
     59 N          31.2803    1.5573   -9.6792 N.am      10 UNK        -0.4204 
     60 CA         31.9872    2.7509   -9.1948 C.3       10 UNK         0.0237 
     61 CB         32.7400    3.4622  -10.3399 C.3       10 UNK        -0.1985 
     62 C          32.8760    2.4755   -7.9637 C.2       10 UNK         0.4970 
     63 O          33.8715    3.1722   -7.7567 O.2       10 UNK        -0.4914 
     64 N          32.4889    1.4773   -7.1601 N.am      11 UNK        -0.4285 
     65 CA         33.1220    1.1247   -5.8815 C.3       11 UNK         0.1007 
     66 C          32.7531    2.0919   -4.7207 C.2       11 UNK         0.5703 
     67 N          31.6901    2.8821   -4.8276 N.am      11 UNK        -0.7361 
     68 O          33.4524    2.1330   -3.7114 O.2       11 UNK        -0.4986 
     69 C69        32.8369   -0.3468   -5.4820 C.3       12 UNK        -0.0947 
     70 S70        33.3384   -1.5347   -6.7718 S.3       12 UNK        -0.2240 
     71 C71        33.7354   -3.0106   -5.7867 C.3       12 UNK         0.0194 
     72 H72        27.9939   -2.0082    2.5978 H         1 UNK         0.0906 
     73 H73        26.3597   -1.9813    1.9074 H         1 UNK         0.0906 
     74 H74        26.7805   -3.1534    3.1478 H         1 UNK         0.0906 
     75 H75        28.4510   -3.8727   -0.6109 H         1 UNK         0.3140 
     76 H76        28.7574   -1.2334    0.5356 H         1 UNK         0.1085 
     77 H77        29.1784   -2.2386   -2.3285 H         1 UNK         0.0836 
     78 H78        29.5660   -0.6361   -1.7640 H         1 UNK         0.0836 
     79 H79        30.4108   -4.4829   -1.0864 H         1 UNK         0.0731 
     80 H80        32.1455   -4.3419   -1.0613 H         1 UNK         0.0731 
     81 H81        33.1912   -2.9422   -3.1136 H         1 UNK         0.1312 
     82 H82        31.5982   -4.3374   -6.8429 H         1 UNK         0.1406 
     83 H83        29.4574   -5.0482   -3.1951 H         1 UNK         0.1631 
     84 H84        28.5911   -5.9569   -5.2078 H         1 UNK         0.0717 
     85 H85        29.8319   -6.3958   -6.3526 H         1 UNK         0.0717 
     86 H86        26.5044   -4.2874   -5.9369 H         1 UNK         0.0934 
     87 H87        27.7466   -3.2718   -5.2539 H         1 UNK         0.0934 
     88 H88        26.7223   -2.7296   -8.0740 H         1 UNK         0.0739 
     89 H89        25.2910   -1.7329   -5.6566 H         1 UNK         0.3093 
     90 H90        22.6409   -0.6504   -7.7048 H         1 UNK         0.0818 
     91 H91        21.1052   -1.9502   -6.2509 H         1 UNK         0.0819 
     92 H92        21.8829   -3.0211   -7.4027 H         1 UNK         0.0819 
     93 H93        22.4308   -2.9937   -5.7325 H         1 UNK         0.0819 
     94 H94        22.7895   -0.6602   -4.8985 H         1 UNK         0.3041 
     95 H95        25.1411    1.9084   -4.3439 H         1 UNK         0.0784 
     96 H96        23.0803    3.1607   -4.9959 H         1 UNK         0.0793 
     97 H97        22.0900    2.0090   -4.1101 H         1 UNK         0.0793 
     98 H98        23.2388    3.0378   -3.2530 H         1 UNK         0.0793 
     99 H99        23.5379    0.7199   -2.4458 H         1 UNK         0.3024 
    100 H100       24.3836   -0.7037   -0.9589 H         1 UNK         0.1171 
    101 H101       22.8741   -2.2259   -2.2597 H         1 UNK         0.0786 
    102 H102       24.2386   -3.2560   -2.6698 H         1 UNK         0.0786 
    103 H103       23.7067   -3.1120   -0.9943 H         1 UNK         0.0786 
    104 H104       26.2494   -2.8561   -1.2726 H         1 UNK         0.2977 
    105 H105       26.9897   -0.6762   -5.1222 H         1 UNK         0.3127 
    106 H106       29.5723    0.2250   -5.5922 H         1 UNK         0.0770 
    107 H107       27.3710    1.7210   -4.0846 H         1 UNK         0.0814 
    108 H108       29.1024    1.8933   -3.8601 H         1 UNK         0.0814 
    109 H109       28.3077    0.3891   -3.4245 H         1 UNK         0.0814 
    110 H110       26.5307    1.6885   -6.8425 H         1 UNK         0.2983 
    111 H111       28.0053    3.9625   -8.0046 H         1 UNK         0.0947 
    112 H112       25.7948    4.6721   -8.7945 H         1 UNK         0.0806 
    113 H113       25.6792    4.2433   -7.0945 H         1 UNK         0.0806 
    114 H114       25.0722    3.1410   -8.3297 H         1 UNK         0.0806 
    115 H115       26.7962    0.7991   -8.9866 H         1 UNK         0.3000 
    116 H116       26.8862    1.2716  -11.8372 H         1 UNK         0.0850 
    117 H117       26.4386   -1.1778  -11.9722 H         1 UNK         0.0810 
    118 H118       25.3417   -0.3982  -10.8441 H         1 UNK         0.0810 
    119 H119       26.7010   -1.3423  -10.2422 H         1 UNK         0.0810 
    120 H120       28.9943   -0.5240   -9.5330 H         1 UNK         0.3040 
    121 H121       31.0512   -1.0016  -11.5818 H         1 UNK         0.0766 
    122 H122       30.9204   -1.6922   -8.5968 H         1 UNK         0.0812 
    123 H123       32.1343   -2.2667   -9.7302 H         1 UNK         0.0812 
    124 H124       30.4589   -2.7612   -9.9171 H         1 UNK         0.0812 
    125 H125       30.2783    1.5673   -9.5499 H         1 UNK         0.3205 
    126 H126       31.2098    3.4338   -8.8489 H         1 UNK         0.0754 
    127 H127       33.1244    4.4293  -10.0134 H         1 UNK         0.0769 
    128 H128       32.0839    3.6467  -11.1906 H         1 UNK         0.0769 
    129 H129       33.5909    2.8782  -10.6916 H         1 UNK         0.0769 
    130 H130       31.6348    0.9897   -7.3834 H         1 UNK         0.2981 
    131 H131       34.2014    1.2165   -6.0169 H         1 UNK         0.0541 
    132 H132       31.0889    2.8275   -5.6428 H         1 UNK         0.3459 
    133 H133       31.4694    3.5158   -4.0769 H         1 UNK         0.3459 
    134 H134       31.7770   -0.4979   -5.2742 H         1 UNK         0.0612 
    135 H135       33.3674   -0.5929   -4.5603 H         1 UNK         0.0612 
    136 H136       34.5340   -2.7686   -5.0837 H         1 UNK         0.0624 
    137 H137       34.1355   -3.7775   -6.4512 H         1 UNK         0.0624 
@<TRIPOS>BOND
     1    1    2 1    
     2    1   72 1    
     3    1   73 1    
     4    1   74 1    
     5    2    3 2    
     6    2    4 am   BACKBONE|DICT|INTERRES
     7    4    5 1    
     8    4   75 1    
     9    5    6 1    
    10    5   35 1    
    11    5   76 1    
    12    6    7 1    
    13    6   77 1    
    14    6   78 1    
    15    7    8 1    
    16    8    9 1    
    17    8   79 1    
    18    8   80 1    
    19    9   10 ar   
    20    9   14 ar   
    21   10   11 ar   
    22   10   81 1    
    23   11   12 ar   
    24   11   71 1    
    25   12   13 ar   
    26   12   82 1    
    27   13   14 ar   
    28   13   15 1    
    29   14   83 1    
    30   15   16 1    
    31   15   84 1    
    32   15   85 1    
    33   16   17 1    
    34   17   18 1    
    35   17   86 1    
    36   17   87 1    
    37   18   19 1    
    38   18   37 1    
    39   18   88 1    
    40   19   20 am   BACKBONE|DICT|INTERRES
    41   19   89 1    
    42   20   21 2    
    43   20   22 1    
    44   22   23 1    
    45   22   24 1    
    46   22   90 1    
    47   23   91 1    
    48   23   92 1    
    49   23   93 1    
    50   24   25 am   BACKBONE|DICT|INTERRES
    51   24   94 1    
    52   25   26 2    
    53   25   27 1    
    54   27   28 1    
    55   27   29 1    
    56   27   95 1    
    57   28   96 1    
    58   28   97 1    
    59   28   98 1    
    60   29   30 am   BACKBONE|DICT|INTERRES
    61   29   99 1    
    62   30   31 2    
    63   30   32 1    
    64   32   33 1    
    65   32   34 1    
    66   32  100 1    
    67   33  101 1    
    68   33  102 1    
    69   33  103 1    
    70   34   35 am   BACKBONE|DICT|INTERRES
    71   34  104 1    
    72   35   36 2    
    73   37   38 2    
    74   37   39 am   BACKBONE|DICT|INTERRES
    75   39   40 1    
    76   39  105 1    
    77   40   41 1    
    78   40   42 1    
    79   40  106 1    
    80   41  107 1    
    81   41  108 1    
    82   41  109 1    
    83   42   43 2    
    84   42   44 am   BACKBONE|DICT|INTERRES
    85   44   45 1    
    86   44  110 1    
    87   45   46 1    
    88   45   47 1    
    89   45  111 1    
    90   46  112 1    
    91   46  113 1    
    92   46  114 1    
    93   47   48 2    
    94   47   49 am   BACKBONE|DICT|INTERRES
    95   49   50 1    
    96   49  115 1    
    97   50   51 1    
    98   50   52 1    
    99   50  116 1    
   100   51  117 1    
   101   51  118 1    
   102   51  119 1    
   103   52   53 2    
   104   52   54 am   BACKBONE|DICT|INTERRES
   105   54   55 1    
   106   54  120 1    
   107   55   56 1    
   108   55   57 1    
   109   55  121 1    
   110   56  122 1    
   111   56  123 1    
   112   56  124 1    
   113   57   58 2    
   114   57   59 am   BACKBONE|DICT|INTERRES
   115   59   60 1    
   116   59  125 1    
   117   60   61 1    
   118   60   62 1    
   119   60  126 1    
   120   61  127 1    
   121   61  128 1    
   122   61  129 1    
   123   62   63 2    
   124   62   64 am   BACKBONE|DICT|INTERRES
   125   64   65 1    
   126   64  130 1    
   127   65   66 1    
   128   65   69 1    
   129   65  131 1    
   130   66   67 am   BACKBONE|DICT|INTERRES
   131   66   68 2    
   132   67  132 1    
   133   67  133 1    
   134   69   70 1    
   135   69  134 1    
   136   69  135 1    
   137   70   71 1    
   138   71  136 1    
   139   71  137 1    
@<TRIPOS>SUBSTRUCTURE
     1 UNK         1 GROUP             0       ****    0 ROOT    
