@<TRIPOS>MOLECULE
3R137
137   139    1
SMALL
USER_CHARGES


@<TRIPOS>ATOM
      1 CA         30.1745   -5.1570   -7.4003 C.3       0 UNK        -0.2020 
      2 C          29.0206   -5.8249   -6.6674 C.2       0 UNK         0.4855 
      3 O          28.5281   -6.8621   -7.1117 O.2       0 UNK        -0.5197 
      4 N          28.5956   -5.2414   -5.5419 N.am      1 UNK        -0.4892 
      5 CA         27.4381   -5.6683   -4.7496 C.3       1 UNK         0.0835 
      6 C6         27.5765   -5.2370   -3.2641 C.3       12 UNK        -0.0855 
      7 S7         27.9548   -3.4649   -3.0281 S.3       12 UNK        -0.2931 
      8 C8         29.5400   -3.5697   -2.1394 C.3       12 UNK         0.0378 
      9 C9         30.1088   -2.1832   -1.8939 C.ar      12 UNK        -0.0802 
     10 C10        31.1293   -1.6839   -2.7085 C.ar      12 UNK        -0.0944 
     11 C11        31.6149   -0.3868   -2.5197 C.ar      12 UNK        -0.0787 
     12 C12        31.0775    0.4090   -1.5040 C.ar      12 UNK        -0.0862 
     13 C13        30.0521   -0.0790   -0.6876 C.ar      12 UNK        -0.0733 
     14 C14        29.5863   -1.3837   -0.8732 C.ar      12 UNK        -0.0832 
     15 C15        29.4020    0.8237    0.3516 C.3       12 UNK         0.0240 
     16 S16        27.7315    1.3520   -0.1634 S.3       12 UNK        -0.2522 
     17 C17        28.0635    2.1240   -1.7844 C.3       12 UNK        -0.0967 
     18 CA         27.7208    1.1589   -2.9581 C.3       5 UNK         0.0660 
     19 N          26.2828    0.8928   -3.0759 N.am      5 UNK        -0.4015 
     20 C          25.3338    1.7530   -3.4662 C.2       4 UNK         0.4946 
     21 O          25.5651    2.8904   -3.8845 O.2       4 UNK        -0.5353 
     22 CA         23.8792    1.2511   -3.3722 C.3       4 UNK         0.0277 
     23 CB         22.8671    2.4123   -3.3633 C.3       4 UNK        -0.1981 
     24 N          23.5300    0.3342   -4.4586 N.am      4 UNK        -0.4209 
     25 C          23.9706   -0.9230   -4.5914 C.2       3 UNK         0.4942 
     26 O          24.7403   -1.4650   -3.7940 O.2       3 UNK        -0.5208 
     27 CA         23.4614   -1.6776   -5.8316 C.3       3 UNK         0.0250 
     28 CB         24.0760   -1.1061   -7.1187 C.3       3 UNK        -0.1990 
     29 N          23.7787   -3.1020   -5.7698 N.am      3 UNK        -0.4232 
     30 C          23.0668   -4.0354   -5.1338 C.2       2 UNK         0.4993 
     31 O          22.0238   -3.8014   -4.5213 O.2       2 UNK        -0.5286 
     32 CA         23.5823   -5.4855   -5.2162 C.3       2 UNK         0.0209 
     33 CB         23.3025   -6.0910   -6.6065 C.3       2 UNK        -0.1931 
     34 N          24.9879   -5.6861   -4.8237 N.am      2 UNK        -0.4546 
     35 C          26.1074   -5.2056   -5.3887 C.2       1 UNK         0.5154 
     36 O          26.1128   -4.4464   -6.3629 O.2       1 UNK        -0.5181 
     37 C          28.3129    1.5819   -4.3167 C.2       5 UNK         0.5014 
     38 O          28.3728    0.7490   -5.2212 O.2       5 UNK        -0.5248 
     39 N          28.7012    2.8597   -4.4604 N.am      6 UNK        -0.4434 
     40 CA         29.2858    3.4498   -5.6714 C.3       6 UNK         0.0363 
     41 CB         29.6058    4.9296   -5.4113 C.3       6 UNK        -0.1936 
     42 C          28.4250    3.2993   -6.9393 C.2       6 UNK         0.5081 
     43 O          28.9765    3.2804   -8.0401 O.2       6 UNK        -0.5248 
     44 N          27.1051    3.1279   -6.7700 N.am      7 UNK        -0.4718 
     45 CA         26.1563    2.7878   -7.8343 C.3       7 UNK         0.0273 
     46 CB         24.7310    2.8161   -7.2614 C.3       7 UNK        -0.1935 
     47 C          26.4390    1.4385   -8.5292 C.2       7 UNK         0.5018 
     48 O          25.9599    1.2375   -9.6453 O.2       7 UNK        -0.5186 
     49 N          27.2228    0.5526   -7.8919 N.am      8 UNK        -0.4240 
     50 CA         27.7133   -0.6971   -8.4804 C.3       8 UNK         0.0235 
     51 CB         28.1943   -1.6373   -7.3599 C.3       8 UNK        -0.2000 
     52 C          28.8364   -0.4885   -9.5148 C.2       8 UNK         0.4941 
     53 O          29.1929   -1.4513  -10.1946 O.2       8 UNK        -0.5273 
     54 N          29.4085    0.7255   -9.5993 N.am      9 UNK        -0.4262 
     55 CA         30.4720    1.1911  -10.5074 C.3       9 UNK         0.0264 
     56 CB         30.0364    1.0845  -11.9813 C.3       9 UNK        -0.1955 
     57 C          31.8562    0.5473  -10.2950 C.2       9 UNK         0.5031 
     58 O          32.8672    1.2277  -10.4792 O.2       9 UNK        -0.5390 
     59 N          31.8891   -0.7244   -9.8763 N.am      10 UNK        -0.4204 
     60 CA         33.0782   -1.5313   -9.5755 C.3       10 UNK         0.0237 
     61 CB         32.6241   -2.9430   -9.1711 C.3       10 UNK        -0.1985 
     62 C          34.0102   -0.9433   -8.4976 C.2       10 UNK         0.4970 
     63 O          35.1761   -1.3360   -8.4373 O.2       10 UNK        -0.4914 
     64 N          33.4937   -0.0142   -7.6835 N.am      11 UNK        -0.4285 
     65 CA         34.2516    0.7888   -6.7137 C.3       11 UNK         0.1007 
     66 C          35.3157    1.7293   -7.3541 C.2       11 UNK         0.5703 
     67 N          35.2121    2.0770   -8.6332 N.am      11 UNK        -0.7361 
     68 O          36.2498    2.1489   -6.6754 O.2       11 UNK        -0.4986 
     69 C69        33.3156    1.6097   -5.7872 C.3       12 UNK        -0.0947 
     70 S70        31.9689    0.6343   -5.0413 S.3       12 UNK        -0.2240 
     71 C71        32.6890    0.1699   -3.4400 C.3       12 UNK         0.0194 
     72 H72        30.5677   -4.3052   -6.8432 H         1 UNK         0.0906 
     73 H73        30.9883   -5.8679   -7.5516 H         1 UNK         0.0906 
     74 H74        29.8433   -4.8025   -8.3775 H         1 UNK         0.0906 
     75 H75        29.0022   -4.3661   -5.2447 H         1 UNK         0.3140 
     76 H76        27.4110   -6.7605   -4.7665 H         1 UNK         0.1085 
     77 H77        26.6788   -5.4754   -2.6913 H         1 UNK         0.0836 
     78 H78        28.3663   -5.8320   -2.8028 H         1 UNK         0.0836 
     79 H79        29.3929   -4.0831   -1.1878 H         1 UNK         0.0731 
     80 H80        30.2428   -4.1741   -2.7155 H         1 UNK         0.0731 
     81 H81        31.5278   -2.2914   -3.5097 H         1 UNK         0.1312 
     82 H82        31.4355    1.4209   -1.3712 H         1 UNK         0.1406 
     83 H83        28.7798   -1.7584   -0.2570 H         1 UNK         0.1631 
     84 H84        30.0157    1.7064    0.5383 H         1 UNK         0.0717 
     85 H85        29.3306    0.2931    1.3021 H         1 UNK         0.0717 
     86 H86        27.4795    3.0436   -1.8496 H         1 UNK         0.0934 
     87 H87        29.1106    2.4295   -1.8105 H         1 UNK         0.0934 
     88 H88        28.1794    0.1924   -2.7486 H         1 UNK         0.0739 
     89 H89        25.9940   -0.0613   -2.8872 H         1 UNK         0.3093 
     90 H90        23.7769    0.7173   -2.4247 H         1 UNK         0.0818 
     91 H91        21.8506    2.0529   -3.2022 H         1 UNK         0.0819 
     92 H92        23.0905    3.1169   -2.5610 H         1 UNK         0.0819 
     93 H93        22.8820    2.9715   -4.2998 H         1 UNK         0.0819 
     94 H94        22.9081    0.7014   -5.1640 H         1 UNK         0.3041 
     95 H95        22.3765   -1.5610   -5.8811 H         1 UNK         0.0784 
     96 H96        23.7968   -0.0637   -7.2691 H         1 UNK         0.0793 
     97 H97        25.1631   -1.1577   -7.0918 H         1 UNK         0.0793 
     98 H98        23.7391   -1.6553   -7.9982 H         1 UNK         0.0793 
     99 H99        24.6676   -3.3982   -6.1696 H         1 UNK         0.3024 
    100 H100       22.9935   -6.0552   -4.4947 H         1 UNK         0.1171 
    101 H101       22.2453   -6.0075   -6.8620 H         1 UNK         0.0786 
    102 H102       23.5594   -7.1498   -6.6361 H         1 UNK         0.0786 
    103 H103       23.8656   -5.5885   -7.3936 H         1 UNK         0.0786 
    104 H104       25.1039   -6.2756   -4.0108 H         1 UNK         0.2977 
    105 H105       28.5592    3.4894   -3.6848 H         1 UNK         0.3127 
    106 H106       30.2241    2.9273   -5.8640 H         1 UNK         0.0770 
    107 H107       28.7071    5.5016   -5.1770 H         1 UNK         0.0814 
    108 H108       30.0651    5.3889   -6.2879 H         1 UNK         0.0814 
    109 H109       30.3064    5.0459   -4.5842 H         1 UNK         0.0814 
    110 H110       26.7391    3.1432   -5.8245 H         1 UNK         0.2983 
    111 H111       26.2328    3.5613   -8.6014 H         1 UNK         0.0947 
    112 H112       23.9925    2.5878   -8.0312 H         1 UNK         0.0806 
    113 H113       24.4848    3.7981   -6.8571 H         1 UNK         0.0806 
    114 H114       24.6091    2.0871   -6.4617 H         1 UNK         0.0806 
    115 H115       27.5743    0.7764   -6.9626 H         1 UNK         0.3000 
    116 H116       26.8820   -1.1814   -8.9970 H         1 UNK         0.0850 
    117 H117       28.4412   -2.6219   -7.7581 H         1 UNK         0.0810 
    118 H118       29.0867   -1.2526   -6.8643 H         1 UNK         0.0810 
    119 H119       27.4292   -1.7845   -6.5973 H         1 UNK         0.0810 
    120 H120       29.0714    1.4432   -8.9645 H         1 UNK         0.3040 
    121 H121       30.5942    2.2517  -10.2811 H         1 UNK         0.0766 
    122 H122       29.0956    1.6069  -12.1545 H         1 UNK         0.0812 
    123 H123       29.9082    0.0487  -12.2964 H         1 UNK         0.0812 
    124 H124       30.7820    1.5322  -12.6399 H         1 UNK         0.0812 
    125 H125       30.9895   -1.1989   -9.8318 H         1 UNK         0.3205 
    126 H126       33.6599   -1.6047  -10.4963 H         1 UNK         0.0754 
    127 H127       33.4799   -3.5934   -8.9848 H         1 UNK         0.0769 
    128 H128       32.0276   -3.4105   -9.9549 H         1 UNK         0.0769 
    129 H129       32.0254   -2.9212   -8.2603 H         1 UNK         0.0769 
    130 H130       32.5221    0.2312   -7.7915 H         1 UNK         0.2981 
    131 H131       34.8007    0.0844   -6.0862 H         1 UNK         0.0541 
    132 H132       35.9074    2.6842   -9.0363 H         1 UNK         0.3459 
    133 H133       34.4414    1.7447   -9.2020 H         1 UNK         0.3459 
    134 H134       32.8461    2.4179   -6.3515 H         1 UNK         0.0612 
    135 H135       33.8886    2.0932   -4.9940 H         1 UNK         0.0612 
    136 H136       33.1648    1.0391   -2.9841 H         1 UNK         0.0624 
    137 H137       33.4727   -0.5725   -3.5959 H         1 UNK         0.0624 
@<TRIPOS>BOND
     1    1    2 1    
     2    1   72 1    
     3    1   73 1    
     4    1   74 1    
     5    2    3 2    
     6    2    4 am   BACKBONE|DICT|INTERRES
     7    4    5 1    
     8    4   75 1    
     9    5    6 1    
    10    5   35 1    
    11    5   76 1    
    12    6    7 1    
    13    6   77 1    
    14    6   78 1    
    15    7    8 1    
    16    8    9 1    
    17    8   79 1    
    18    8   80 1    
    19    9   10 ar   
    20    9   14 ar   
    21   10   11 ar   
    22   10   81 1    
    23   11   12 ar   
    24   11   71 1    
    25   12   13 ar   
    26   12   82 1    
    27   13   14 ar   
    28   13   15 1    
    29   14   83 1    
    30   15   16 1    
    31   15   84 1    
    32   15   85 1    
    33   16   17 1    
    34   17   18 1    
    35   17   86 1    
    36   17   87 1    
    37   18   19 1    
    38   18   37 1    
    39   18   88 1    
    40   19   20 am   BACKBONE|DICT|INTERRES
    41   19   89 1    
    42   20   21 2    
    43   20   22 1    
    44   22   23 1    
    45   22   24 1    
    46   22   90 1    
    47   23   91 1    
    48   23   92 1    
    49   23   93 1    
    50   24   25 am   BACKBONE|DICT|INTERRES
    51   24   94 1    
    52   25   26 2    
    53   25   27 1    
    54   27   28 1    
    55   27   29 1    
    56   27   95 1    
    57   28   96 1    
    58   28   97 1    
    59   28   98 1    
    60   29   30 am   BACKBONE|DICT|INTERRES
    61   29   99 1    
    62   30   31 2    
    63   30   32 1    
    64   32   33 1    
    65   32   34 1    
    66   32  100 1    
    67   33  101 1    
    68   33  102 1    
    69   33  103 1    
    70   34   35 am   BACKBONE|DICT|INTERRES
    71   34  104 1    
    72   35   36 2    
    73   37   38 2    
    74   37   39 am   BACKBONE|DICT|INTERRES
    75   39   40 1    
    76   39  105 1    
    77   40   41 1    
    78   40   42 1    
    79   40  106 1    
    80   41  107 1    
    81   41  108 1    
    82   41  109 1    
    83   42   43 2    
    84   42   44 am   BACKBONE|DICT|INTERRES
    85   44   45 1    
    86   44  110 1    
    87   45   46 1    
    88   45   47 1    
    89   45  111 1    
    90   46  112 1    
    91   46  113 1    
    92   46  114 1    
    93   47   48 2    
    94   47   49 am   BACKBONE|DICT|INTERRES
    95   49   50 1    
    96   49  115 1    
    97   50   51 1    
    98   50   52 1    
    99   50  116 1    
   100   51  117 1    
   101   51  118 1    
   102   51  119 1    
   103   52   53 2    
   104   52   54 am   BACKBONE|DICT|INTERRES
   105   54   55 1    
   106   54  120 1    
   107   55   56 1    
   108   55   57 1    
   109   55  121 1    
   110   56  122 1    
   111   56  123 1    
   112   56  124 1    
   113   57   58 2    
   114   57   59 am   BACKBONE|DICT|INTERRES
   115   59   60 1    
   116   59  125 1    
   117   60   61 1    
   118   60   62 1    
   119   60  126 1    
   120   61  127 1    
   121   61  128 1    
   122   61  129 1    
   123   62   63 2    
   124   62   64 am   BACKBONE|DICT|INTERRES
   125   64   65 1    
   126   64  130 1    
   127   65   66 1    
   128   65   69 1    
   129   65  131 1    
   130   66   67 am   BACKBONE|DICT|INTERRES
   131   66   68 2    
   132   67  132 1    
   133   67  133 1    
   134   69   70 1    
   135   69  134 1    
   136   69  135 1    
   137   70   71 1    
   138   71  136 1    
   139   71  137 1    
@<TRIPOS>SUBSTRUCTURE
     1 UNK         1 GROUP             0       ****    0 ROOT    
