@<TRIPOS>MOLECULE
3R137
137   139    1
SMALL
USER_CHARGES


@<TRIPOS>ATOM
      1 CA         30.3758   -5.8369   -7.9885 C.3       0 UNK        -0.2020 
      2 C          29.5575   -6.1066   -6.7352 C.2       0 UNK         0.4855 
      3 O          28.8522   -7.1133   -6.6696 O.2       0 UNK        -0.5197 
      4 N          29.6505   -5.2155   -5.7385 N.am      1 UNK        -0.4892 
      5 CA         28.9275   -5.2988   -4.4599 C.3       1 UNK         0.0835 
      6 C6         29.4945   -4.2788   -3.4418 C.3       12 UNK        -0.0855 
      7 S7         29.1631   -4.7267   -1.7036 S.3       12 UNK        -0.2931 
      8 C8         30.6237   -4.0355   -0.8590 C.3       12 UNK         0.0378 
      9 C9         30.8086   -2.5544   -1.1612 C.ar      12 UNK        -0.0802 
     10 C10        31.8644   -2.1295   -1.9729 C.ar      12 UNK        -0.0944 
     11 C11        32.0182   -0.7765   -2.2864 C.ar      12 UNK        -0.0787 
     12 C12        31.1158    0.1581   -1.7715 C.ar      12 UNK        -0.0862 
     13 C13        30.0599   -0.2542   -0.9529 C.ar      12 UNK        -0.0733 
     14 C14        29.9146   -1.6108   -0.6464 C.ar      12 UNK        -0.0832 
     15 C15        29.0769    0.7616   -0.3917 C.3       12 UNK         0.0240 
     16 S16        27.4986    0.7509   -1.2985 S.3       12 UNK        -0.2522 
     17 C17        27.9247    1.6479   -2.8323 C.3       12 UNK        -0.0967 
     18 CA         27.2351    1.0394   -4.0897 C.3       5 UNK         0.0660 
     19 N          25.7762    0.9497   -3.9540 N.am      5 UNK        -0.4015 
     20 C          24.9165    1.9777   -3.8596 C.2       4 UNK         0.4946 
     21 O          25.2597    3.1602   -3.9176 O.2       4 UNK        -0.5353 
     22 CA         23.4285    1.6648   -3.5938 C.3       4 UNK         0.0277 
     23 CB         22.4955    2.4120   -4.5717 C.3       4 UNK        -0.1981 
     24 N          23.1048    0.2330   -3.5105 N.am      4 UNK        -0.4209 
     25 C          23.0743   -0.6612   -4.5072 C.2       3 UNK         0.4942 
     26 O          23.2429   -0.3904   -5.6978 O.2       3 UNK        -0.5208 
     27 CA         22.8225   -2.1193   -4.0857 C.3       3 UNK         0.0250 
     28 CB         21.3334   -2.4730   -4.2307 C.3       3 UNK        -0.1990 
     29 N          23.6220   -3.0620   -4.8708 N.am      3 UNK        -0.4232 
     30 C          24.9610   -3.0768   -4.9236 C.2       2 UNK         0.4993 
     31 O          25.6877   -2.3235   -4.2674 O.2       2 UNK        -0.5286 
     32 CA         25.5730   -4.0712   -5.9241 C.3       2 UNK         0.0209 
     33 CB         25.4796   -3.5065   -7.3495 C.3       2 UNK        -0.1931 
     34 N          26.9754   -4.3587   -5.6245 N.am      2 UNK        -0.4546 
     35 C          27.3967   -5.1475   -4.6265 C.2       1 UNK         0.5154 
     36 O          26.6339   -5.7676   -3.8828 O.2       1 UNK        -0.5181 
     37 C          27.6022    1.7362   -5.4221 C.2       5 UNK         0.5014 
     38 O          27.1420    1.2859   -6.4748 O.2       5 UNK        -0.5248 
     39 N          28.3991    2.8152   -5.3587 N.am      6 UNK        -0.4434 
     40 CA         28.6822    3.7751   -6.4317 C.3       6 UNK         0.0363 
     41 CB         27.4542    4.6959   -6.6235 C.3       6 UNK        -0.1936 
     42 C          29.1823    3.1184   -7.7358 C.2       6 UNK         0.5081 
     43 O          30.0573    2.2479   -7.6840 O.2       6 UNK        -0.5248 
     44 N          28.6320    3.5540   -8.8759 N.am      7 UNK        -0.4718 
     45 CA         28.9328    3.0439  -10.2133 C.3       7 UNK         0.0273 
     46 CB         28.4830    4.0795  -11.2566 C.3       7 UNK        -0.1935 
     47 C          28.2921    1.6760  -10.5045 C.2       7 UNK         0.5018 
     48 O          28.7549    0.9941  -11.4181 O.2       7 UNK        -0.5186 
     49 N          27.2641    1.2859   -9.7336 N.am      8 UNK        -0.4240 
     50 CA         26.6185   -0.0267   -9.8318 C.3       8 UNK         0.0235 
     51 CB         25.2655   -0.0151   -9.0999 C.3       8 UNK        -0.2000 
     52 C          27.5352   -1.1374   -9.2988 C.2       8 UNK         0.4941 
     53 O          27.7007   -2.1599   -9.9639 O.2       8 UNK        -0.5273 
     54 N          28.1486   -0.8957   -8.1304 N.am      9 UNK        -0.4262 
     55 CA         29.2088   -1.7408   -7.5714 C.3       9 UNK         0.0264 
     56 CB         29.3345   -1.4725   -6.0647 C.3       9 UNK        -0.1955 
     57 C          30.5659   -1.5383   -8.2718 C.2       9 UNK         0.5031 
     58 O          31.4316   -2.4044   -8.1494 O.2       9 UNK        -0.5390 
     59 N          30.7148   -0.4106   -8.9836 N.am      10 UNK        -0.4204 
     60 CA         31.8938    0.0475   -9.7256 C.3       10 UNK         0.0237 
     61 CB         32.2431   -0.9211  -10.8759 C.3       10 UNK        -0.1985 
     62 C          33.0827    0.3561   -8.7987 C.2       10 UNK         0.4970 
     63 O          34.2248    0.0286   -9.1274 O.2       10 UNK        -0.4914 
     64 N          32.7863    0.9877   -7.6581 N.am      11 UNK        -0.4285 
     65 CA         33.7583    1.3285   -6.6094 C.3       11 UNK         0.1007 
     66 C          33.3543    2.5483   -5.7345 C.2       11 UNK         0.5703 
     67 N          32.1910    3.1597   -5.9240 N.am      11 UNK        -0.7361 
     68 O          34.1277    2.9699   -4.8779 O.2       11 UNK        -0.4986 
     69 C69        34.1824    0.0907   -5.7699 C.3       12 UNK        -0.0947 
     70 S70        32.7837   -0.7213   -4.9255 S.3       12 UNK        -0.2240 
     71 C71        33.1534   -0.3293   -3.1912 C.3       12 UNK         0.0194 
     72 H72        30.8781   -6.7472   -8.3147 H         1 UNK         0.0906 
     73 H73        29.7270   -5.4968   -8.7953 H         1 UNK         0.0906 
     74 H74        31.1382   -5.0768   -7.8198 H         1 UNK         0.0906 
     75 H75        30.2735   -4.4276   -5.8454 H         1 UNK         0.3140 
     76 H76        29.1038   -6.3039   -4.0692 H         1 UNK         0.1085 
     77 H77        30.5771   -4.2147   -3.5617 H         1 UNK         0.0836 
     78 H78        29.1131   -3.2722   -3.6253 H         1 UNK         0.0836 
     79 H79        31.5075   -4.6050   -1.1512 H         1 UNK         0.0731 
     80 H80        30.5121   -4.1749    0.2172 H         1 UNK         0.0731 
     81 H81        32.5582   -2.8522   -2.3806 H         1 UNK         0.1312 
     82 H82        31.2343    1.2056   -2.0124 H         1 UNK         0.1406 
     83 H83        29.0920   -1.9361   -0.0237 H         1 UNK         0.1631 
     84 H84        29.5009    1.7670   -0.4049 H         1 UNK         0.0717 
     85 H85        28.8797    0.5300    0.6561 H         1 UNK         0.0717 
     86 H86        27.6415    2.6927   -2.6923 H         1 UNK         0.0934 
     87 H87        29.0076    1.6316   -2.9572 H         1 UNK         0.0934 
     88 H88        27.5834    0.0111   -4.1828 H         1 UNK         0.0739 
     89 H89        25.4087    0.0075   -3.9420 H         1 UNK         0.3093 
     90 H90        23.2267    2.0603   -2.5972 H         1 UNK         0.0818 
     91 H91        22.6203    3.4916   -4.4794 H         1 UNK         0.0819 
     92 H92        22.7028    2.1553   -5.6107 H         1 UNK         0.0819 
     93 H93        21.4474    2.1902   -4.3713 H         1 UNK         0.0819 
     94 H94        22.9503   -0.1088   -2.5712 H         1 UNK         0.3041 
     95 H95        23.1102   -2.2406   -3.0391 H         1 UNK         0.0784 
     96 H96        20.7125   -1.8041   -3.6330 H         1 UNK         0.0793 
     97 H97        20.9984   -2.3890   -5.2656 H         1 UNK         0.0793 
     98 H98        21.1302   -3.4892   -3.8922 H         1 UNK         0.0793 
     99 H99        23.1069   -3.6849   -5.4754 H         1 UNK         0.3024 
    100 H100       25.0133   -5.0084   -5.8749 H         1 UNK         0.1171 
    101 H101       25.9276   -2.5157   -7.4053 H         1 UNK         0.0786 
    102 H102       25.9807   -4.1482   -8.0748 H         1 UNK         0.0786 
    103 H103       24.4410   -3.4071   -7.6671 H         1 UNK         0.0786 
    104 H104       27.6675   -3.8831   -6.1808 H         1 UNK         0.2977 
    105 H105       28.7652    3.0726   -4.4543 H         1 UNK         0.3127 
    106 H106       29.5048    4.3973   -6.0774 H         1 UNK         0.0770 
    107 H107       26.5932    4.1515   -7.0144 H         1 UNK         0.0814 
    108 H108       27.6702    5.5238   -7.3000 H         1 UNK         0.0814 
    109 H109       27.1497    5.1403   -5.6755 H         1 UNK         0.0814 
    110 H110       27.9302    4.2782   -8.8176 H         1 UNK         0.2983 
    111 H111       30.0149    2.9227  -10.2987 H         1 UNK         0.0947 
    112 H112       28.7236    3.7456  -12.2671 H         1 UNK         0.0806 
    113 H113       28.9828    5.0368  -11.1075 H         1 UNK         0.0806 
    114 H114       27.4065    4.2517  -11.2188 H         1 UNK         0.0806 
    115 H115       26.9697    1.8855   -8.9749 H         1 UNK         0.3000 
    116 H116       26.4260   -0.2320  -10.8874 H         1 UNK         0.0850 
    117 H117       24.7540   -0.9713   -9.2168 H         1 UNK         0.0810 
    118 H118       24.6048    0.7541   -9.4998 H         1 UNK         0.0810 
    119 H119       25.3738    0.1620   -8.0295 H         1 UNK         0.0810 
    120 H120       27.8996   -0.0535   -7.6145 H         1 UNK         0.3040 
    121 H121       28.9269   -2.7864   -7.7104 H         1 UNK         0.0766 
    122 H122       29.6164   -0.4385   -5.8634 H         1 UNK         0.0812 
    123 H123       30.1030   -2.1033   -5.6175 H         1 UNK         0.0812 
    124 H124       28.3989   -1.6812   -5.5466 H         1 UNK         0.0812 
    125 H125       29.9497    0.2485   -8.9466 H         1 UNK         0.3205 
    126 H126       31.6139    0.9992  -10.1785 H         1 UNK         0.0754 
    127 H127       33.0311   -0.5092  -11.5074 H         1 UNK         0.0769 
    128 H128       31.3782   -1.1023  -11.5144 H         1 UNK         0.0769 
    129 H129       32.5949   -1.8841  -10.5047 H         1 UNK         0.0769 
    130 H130       31.8219    1.2410   -7.4772 H         1 UNK         0.2981 
    131 H131       34.6544    1.6787   -7.1249 H         1 UNK         0.0541 
    132 H132       31.9765    3.9582   -5.3497 H         1 UNK         0.3459 
    133 H133       31.5233    2.8395   -6.6145 H         1 UNK         0.3459 
    134 H134       34.9524    0.3598   -5.0450 H         1 UNK         0.0612 
    135 H135       34.6472   -0.6519   -6.4196 H         1 UNK         0.0612 
    136 H136       34.0800   -0.8240   -2.8963 H         1 UNK         0.0624 
    137 H137       33.3242    0.7435   -3.0895 H         1 UNK         0.0624 
@<TRIPOS>BOND
     1    1    2 1    
     2    1   72 1    
     3    1   73 1    
     4    1   74 1    
     5    2    3 2    
     6    2    4 am   BACKBONE|DICT|INTERRES
     7    4    5 1    
     8    4   75 1    
     9    5    6 1    
    10    5   35 1    
    11    5   76 1    
    12    6    7 1    
    13    6   77 1    
    14    6   78 1    
    15    7    8 1    
    16    8    9 1    
    17    8   79 1    
    18    8   80 1    
    19    9   10 ar   
    20    9   14 ar   
    21   10   11 ar   
    22   10   81 1    
    23   11   12 ar   
    24   11   71 1    
    25   12   13 ar   
    26   12   82 1    
    27   13   14 ar   
    28   13   15 1    
    29   14   83 1    
    30   15   16 1    
    31   15   84 1    
    32   15   85 1    
    33   16   17 1    
    34   17   18 1    
    35   17   86 1    
    36   17   87 1    
    37   18   19 1    
    38   18   37 1    
    39   18   88 1    
    40   19   20 am   BACKBONE|DICT|INTERRES
    41   19   89 1    
    42   20   21 2    
    43   20   22 1    
    44   22   23 1    
    45   22   24 1    
    46   22   90 1    
    47   23   91 1    
    48   23   92 1    
    49   23   93 1    
    50   24   25 am   BACKBONE|DICT|INTERRES
    51   24   94 1    
    52   25   26 2    
    53   25   27 1    
    54   27   28 1    
    55   27   29 1    
    56   27   95 1    
    57   28   96 1    
    58   28   97 1    
    59   28   98 1    
    60   29   30 am   BACKBONE|DICT|INTERRES
    61   29   99 1    
    62   30   31 2    
    63   30   32 1    
    64   32   33 1    
    65   32   34 1    
    66   32  100 1    
    67   33  101 1    
    68   33  102 1    
    69   33  103 1    
    70   34   35 am   BACKBONE|DICT|INTERRES
    71   34  104 1    
    72   35   36 2    
    73   37   38 2    
    74   37   39 am   BACKBONE|DICT|INTERRES
    75   39   40 1    
    76   39  105 1    
    77   40   41 1    
    78   40   42 1    
    79   40  106 1    
    80   41  107 1    
    81   41  108 1    
    82   41  109 1    
    83   42   43 2    
    84   42   44 am   BACKBONE|DICT|INTERRES
    85   44   45 1    
    86   44  110 1    
    87   45   46 1    
    88   45   47 1    
    89   45  111 1    
    90   46  112 1    
    91   46  113 1    
    92   46  114 1    
    93   47   48 2    
    94   47   49 am   BACKBONE|DICT|INTERRES
    95   49   50 1    
    96   49  115 1    
    97   50   51 1    
    98   50   52 1    
    99   50  116 1    
   100   51  117 1    
   101   51  118 1    
   102   51  119 1    
   103   52   53 2    
   104   52   54 am   BACKBONE|DICT|INTERRES
   105   54   55 1    
   106   54  120 1    
   107   55   56 1    
   108   55   57 1    
   109   55  121 1    
   110   56  122 1    
   111   56  123 1    
   112   56  124 1    
   113   57   58 2    
   114   57   59 am   BACKBONE|DICT|INTERRES
   115   59   60 1    
   116   59  125 1    
   117   60   61 1    
   118   60   62 1    
   119   60  126 1    
   120   61  127 1    
   121   61  128 1    
   122   61  129 1    
   123   62   63 2    
   124   62   64 am   BACKBONE|DICT|INTERRES
   125   64   65 1    
   126   64  130 1    
   127   65   66 1    
   128   65   69 1    
   129   65  131 1    
   130   66   67 am   BACKBONE|DICT|INTERRES
   131   66   68 2    
   132   67  132 1    
   133   67  133 1    
   134   69   70 1    
   135   69  134 1    
   136   69  135 1    
   137   70   71 1    
   138   71  136 1    
   139   71  137 1    
@<TRIPOS>SUBSTRUCTURE
     1 UNK         1 GROUP             0       ****    0 ROOT    
