@<TRIPOS>MOLECULE
3R137
137   139    1
SMALL
USER_CHARGES


@<TRIPOS>ATOM
      1 CA         30.4239    0.8939   -1.2673 C.3       0 UNK        -0.2020 
      2 C          29.6915   -0.3171   -1.8264 C.2       0 UNK         0.4855 
      3 O          29.2601   -0.2953   -2.9779 O.2       0 UNK        -0.5197 
      4 N          29.5475   -1.3734   -1.0171 N.am      1 UNK        -0.4892 
      5 CA         28.7653   -2.5684   -1.3503 C.3       1 UNK         0.0835 
      6 C6         29.1196   -3.7795   -0.4484 C.3       12 UNK        -0.0855 
      7 S7         30.9070   -4.1504   -0.3741 S.3       12 UNK        -0.2931 
      8 C8         31.0819   -5.5073   -1.5766 C.3       12 UNK         0.0378 
      9 C9         31.0513   -4.9990   -3.0103 C.ar      12 UNK        -0.0802 
     10 C10        32.1421   -4.2879   -3.5214 C.ar      12 UNK        -0.0944 
     11 C11        32.1294   -3.8072   -4.8348 C.ar      12 UNK        -0.0787 
     12 C12        31.0196   -4.0651   -5.6436 C.ar      12 UNK        -0.0862 
     13 C13        29.9233   -4.7780   -5.1469 C.ar      12 UNK        -0.0733 
     14 C14        29.9458   -5.2467   -3.8298 C.ar      12 UNK        -0.0832 
     15 C15        28.7112   -5.0285   -6.0357 C.3       12 UNK         0.0240 
     16 S16        27.2339   -4.1276   -5.4628 S.3       12 UNK        -0.2522 
     17 C17        27.8158   -2.4006   -5.4685 C.3       12 UNK        -0.0967 
     18 CA         27.1780   -1.5250   -6.5706 C.3       5 UNK         0.0660 
     19 N          25.7103   -1.4869   -6.5020 N.am      5 UNK        -0.4015 
     20 C          24.8994   -0.7797   -7.3060 C.2       4 UNK         0.4946 
     21 O          25.2942   -0.0450   -8.2110 O.2       4 UNK        -0.5353 
     22 CA         23.3914   -0.8733   -7.0243 C.3       4 UNK         0.0277 
     23 CB         22.8344   -2.2406   -7.4535 C.3       4 UNK        -0.1981 
     24 N          23.0880   -0.6302   -5.6138 N.am      4 UNK        -0.4209 
     25 C          23.2196    0.5577   -5.0037 C.2       3 UNK         0.4942 
     26 O          23.4804    1.6074   -5.5916 O.2       3 UNK        -0.5208 
     27 CA         23.0703    0.5705   -3.4697 C.3       3 UNK         0.0250 
     28 CB         21.6150    0.8636   -3.0711 C.3       3 UNK        -0.1990 
     29 N          23.5179   -0.6690   -2.8187 N.am      3 UNK        -0.4232 
     30 C          24.7620   -1.1618   -2.9009 C.2       2 UNK         0.4993 
     31 O          25.6648   -0.6141   -3.5377 O.2       2 UNK        -0.5286 
     32 CA         25.0089   -2.5220   -2.2219 C.3       2 UNK         0.0209 
     33 CB         24.3176   -3.6524   -3.0048 C.3       2 UNK        -0.1931 
     34 N          26.4402   -2.8240   -2.1211 N.am      2 UNK        -0.4546 
     35 C          27.2605   -2.2433   -1.2367 C.2       1 UNK         0.5154 
     36 O          26.8648   -1.5038   -0.3298 O.2       1 UNK        -0.5181 
     37 C          27.8050   -0.1245   -6.4966 C.2       5 UNK         0.5014 
     38 O          28.7022    0.1715   -7.2841 O.2       5 UNK        -0.5248 
     39 N          27.2888    0.7069   -5.5805 N.am      6 UNK        -0.4434 
     40 CA         27.7140    2.0868   -5.3461 C.3       6 UNK         0.0363 
     41 CB         26.8668    2.6845   -4.2121 C.3       6 UNK        -0.1936 
     42 C          27.6670    2.9907   -6.5936 C.2       6 UNK         0.5081 
     43 O          28.4511    3.9380   -6.6687 O.2       6 UNK        -0.5248 
     44 N          26.7706    2.6823   -7.5413 N.am      7 UNK        -0.4718 
     45 CA         26.6460    3.3691   -8.8251 C.3       7 UNK         0.0273 
     46 CB         25.1578    3.6387   -9.1038 C.3       7 UNK        -0.1935 
     47 C          27.2659    2.5601   -9.9766 C.2       7 UNK         0.5018 
     48 O          27.9289    3.1499  -10.8309 O.2       7 UNK        -0.5186 
     49 N          27.0023    1.2463  -10.0180 N.am      8 UNK        -0.4240 
     50 CA         27.3266    0.3787  -11.1529 C.3       8 UNK         0.0235 
     51 CB         26.3897   -0.8409  -11.1389 C.3       8 UNK        -0.2000 
     52 C          28.7893   -0.0881  -11.2074 C.2       8 UNK         0.4941 
     53 O          29.2882   -0.3269  -12.3089 O.2       8 UNK        -0.5273 
     54 N          29.4380   -0.2522  -10.0486 N.am      9 UNK        -0.4262 
     55 CA         30.8013   -0.7708   -9.9281 C.3       9 UNK         0.0264 
     56 CB         30.8033   -1.8988   -8.8779 C.3       9 UNK        -0.1955 
     57 C          31.7692    0.3484   -9.5225 C.2       9 UNK         0.5031 
     58 O          31.3428    1.4549   -9.1836 O.2       9 UNK        -0.5390 
     59 N          33.0695    0.0196   -9.5061 N.am      10 UNK        -0.4204 
     60 CA         34.1566    0.8907   -9.0358 C.3       10 UNK         0.0237 
     61 CB         35.5052    0.1955   -9.2848 C.3       10 UNK        -0.1985 
     62 C          34.0315    1.3076   -7.5559 C.2       10 UNK         0.4970 
     63 O          34.5820    2.3402   -7.1721 O.2       10 UNK        -0.4914 
     64 N          33.2955    0.5134   -6.7685 N.am      11 UNK        -0.4285 
     65 CA         32.8655    0.8337   -5.4018 C.3       11 UNK         0.1007 
     66 C          31.7858    1.9558   -5.3136 C.2       11 UNK         0.5703 
     67 N          31.1663    2.3885   -6.4064 N.am      11 UNK        -0.7361 
     68 O          31.5256    2.4645   -4.2265 O.2       11 UNK        -0.4986 
     69 C69        32.4204   -0.4444   -4.6429 C.3       12 UNK        -0.0947 
     70 S70        33.8007   -1.6072   -4.3762 S.3       12 UNK        -0.2240 
     71 C71        33.3227   -3.0403   -5.3963 C.3       12 UNK         0.0194 
     72 H72        31.4119    0.9832   -1.7168 H         1 UNK         0.0906 
     73 H73        29.8676    1.8034   -1.4935 H         1 UNK         0.0906 
     74 H74        30.5452    0.8323   -0.1860 H         1 UNK         0.0906 
     75 H75        29.9160   -1.3437   -0.0776 H         1 UNK         0.3140 
     76 H76        28.9872   -2.8353   -2.3864 H         1 UNK         0.1085 
     77 H77        28.5818   -4.6698   -0.7799 H         1 UNK         0.0836 
     78 H78        28.7884   -3.5977    0.5763 H         1 UNK         0.0836 
     79 H79        32.0344   -6.0092   -1.3997 H         1 UNK         0.0731 
     80 H80        30.3089   -6.2580   -1.4053 H         1 UNK         0.0731 
     81 H81        32.9995   -4.0988   -2.8899 H         1 UNK         0.1312 
     82 H82        31.0058   -3.7077   -6.6630 H         1 UNK         0.1406 
     83 H83        29.0981   -5.7974   -3.4449 H         1 UNK         0.1631 
     84 H84        28.4907   -6.0966   -6.0511 H         1 UNK         0.0717 
     85 H85        28.9187   -4.7433   -7.0684 H         1 UNK         0.0717 
     86 H86        27.6193   -1.9792   -4.4832 H         1 UNK         0.0934 
     87 H87        28.9008   -2.3753   -5.5675 H         1 UNK         0.0934 
     88 H88        27.4402   -1.9493   -7.5421 H         1 UNK         0.0739 
     89 H89        25.2991   -2.0311   -5.7602 H         1 UNK         0.3093 
     90 H90        22.8941   -0.1028   -7.6179 H         1 UNK         0.0818 
     91 H91        21.7514   -2.2809   -7.3349 H         1 UNK         0.0819 
     92 H92        23.0499   -2.4345   -8.5054 H         1 UNK         0.0819 
     93 H93        23.2652   -3.0600   -6.8767 H         1 UNK         0.0819 
     94 H94        22.8409   -1.4299   -5.0505 H         1 UNK         0.3041 
     95 H95        23.6981    1.3811   -3.0927 H         1 UNK         0.0784 
     96 H96        21.2664    1.7928   -3.5246 H         1 UNK         0.0793 
     97 H97        20.9390    0.0705   -3.3931 H         1 UNK         0.0793 
     98 H98        21.5133    0.9755   -1.9914 H         1 UNK         0.0793 
     99 H99        22.8251   -1.1736   -2.2837 H         1 UNK         0.3024 
    100 H100       24.5879   -2.4821   -1.2143 H         1 UNK         0.1171 
    101 H101       23.2349   -3.5214   -3.0172 H         1 UNK         0.0786 
    102 H102       24.5142   -4.6248   -2.5526 H         1 UNK         0.0786 
    103 H103       24.6508   -3.6942   -4.0417 H         1 UNK         0.0786 
    104 H104       26.8282   -3.4055   -2.8501 H         1 UNK         0.2977 
    105 H105       26.5999    0.3289   -4.9332 H         1 UNK         0.3127 
    106 H106       28.7496    2.0434   -5.0064 H         1 UNK         0.0770 
    107 H107       25.8103    2.7260   -4.4794 H         1 UNK         0.0814 
    108 H108       27.1875    3.7005   -3.9786 H         1 UNK         0.0814 
    109 H109       26.9595    2.0960   -3.2986 H         1 UNK         0.0814 
    110 H110       26.1919    1.8622   -7.4056 H         1 UNK         0.2983 
    111 H111       27.1590    4.3328   -8.7878 H         1 UNK         0.0947 
    112 H112       25.0245    4.1462  -10.0602 H         1 UNK         0.0806 
    113 H113       24.7219    4.2766   -8.3347 H         1 UNK         0.0806 
    114 H114       24.5777    2.7153   -9.1386 H         1 UNK         0.0806 
    115 H115       26.4297    0.8300   -9.2847 H         1 UNK         0.3000 
    116 H116       27.1307    0.9358  -12.0719 H         1 UNK         0.0850 
    117 H117       26.5634   -1.4784  -12.0069 H         1 UNK         0.0810 
    118 H118       25.3426   -0.5381  -11.1631 H         1 UNK         0.0810 
    119 H119       26.5402   -1.4534  -10.2489 H         1 UNK         0.0810 
    120 H120       29.0062    0.0478   -9.1769 H         1 UNK         0.3040 
    121 H121       31.1419   -1.1839  -10.8798 H         1 UNK         0.0766 
    122 H122       31.7649   -2.4119   -8.8473 H         1 UNK         0.0812 
    123 H123       30.0482   -2.6516   -9.1054 H         1 UNK         0.0812 
    124 H124       30.6029   -1.5207   -7.8750 H         1 UNK         0.0812 
    125 H125       33.3381   -0.9044   -9.8140 H         1 UNK         0.3205 
    126 H126       34.1254    1.8055   -9.6313 H         1 UNK         0.0754 
    127 H127       36.3355    0.8312   -8.9732 H         1 UNK         0.0769 
    128 H128       35.6500   -0.0255  -10.3425 H         1 UNK         0.0769 
    129 H129       35.5862   -0.7403   -8.7300 H         1 UNK         0.0769 
    130 H130       32.8881   -0.3131   -7.1741 H         1 UNK         0.2981 
    131 H131       33.7360    1.2352   -4.8793 H         1 UNK         0.0541 
    132 H132       31.3416    1.9763   -7.3176 H         1 UNK         0.3459 
    133 H133       30.4635    3.1094   -6.3253 H         1 UNK         0.3459 
    134 H134       31.5982   -0.9395   -5.1631 H         1 UNK         0.0612 
    135 H135       32.0392   -0.1891   -3.6551 H         1 UNK         0.0612 
    136 H136       33.1286   -2.6993   -6.4142 H         1 UNK         0.0624 
    137 H137       34.1731   -3.7204   -5.4572 H         1 UNK         0.0624 
@<TRIPOS>BOND
     1    1    2 1    
     2    1   72 1    
     3    1   73 1    
     4    1   74 1    
     5    2    3 2    
     6    2    4 am   BACKBONE|DICT|INTERRES
     7    4    5 1    
     8    4   75 1    
     9    5    6 1    
    10    5   35 1    
    11    5   76 1    
    12    6    7 1    
    13    6   77 1    
    14    6   78 1    
    15    7    8 1    
    16    8    9 1    
    17    8   79 1    
    18    8   80 1    
    19    9   10 ar   
    20    9   14 ar   
    21   10   11 ar   
    22   10   81 1    
    23   11   12 ar   
    24   11   71 1    
    25   12   13 ar   
    26   12   82 1    
    27   13   14 ar   
    28   13   15 1    
    29   14   83 1    
    30   15   16 1    
    31   15   84 1    
    32   15   85 1    
    33   16   17 1    
    34   17   18 1    
    35   17   86 1    
    36   17   87 1    
    37   18   19 1    
    38   18   37 1    
    39   18   88 1    
    40   19   20 am   BACKBONE|DICT|INTERRES
    41   19   89 1    
    42   20   21 2    
    43   20   22 1    
    44   22   23 1    
    45   22   24 1    
    46   22   90 1    
    47   23   91 1    
    48   23   92 1    
    49   23   93 1    
    50   24   25 am   BACKBONE|DICT|INTERRES
    51   24   94 1    
    52   25   26 2    
    53   25   27 1    
    54   27   28 1    
    55   27   29 1    
    56   27   95 1    
    57   28   96 1    
    58   28   97 1    
    59   28   98 1    
    60   29   30 am   BACKBONE|DICT|INTERRES
    61   29   99 1    
    62   30   31 2    
    63   30   32 1    
    64   32   33 1    
    65   32   34 1    
    66   32  100 1    
    67   33  101 1    
    68   33  102 1    
    69   33  103 1    
    70   34   35 am   BACKBONE|DICT|INTERRES
    71   34  104 1    
    72   35   36 2    
    73   37   38 2    
    74   37   39 am   BACKBONE|DICT|INTERRES
    75   39   40 1    
    76   39  105 1    
    77   40   41 1    
    78   40   42 1    
    79   40  106 1    
    80   41  107 1    
    81   41  108 1    
    82   41  109 1    
    83   42   43 2    
    84   42   44 am   BACKBONE|DICT|INTERRES
    85   44   45 1    
    86   44  110 1    
    87   45   46 1    
    88   45   47 1    
    89   45  111 1    
    90   46  112 1    
    91   46  113 1    
    92   46  114 1    
    93   47   48 2    
    94   47   49 am   BACKBONE|DICT|INTERRES
    95   49   50 1    
    96   49  115 1    
    97   50   51 1    
    98   50   52 1    
    99   50  116 1    
   100   51  117 1    
   101   51  118 1    
   102   51  119 1    
   103   52   53 2    
   104   52   54 am   BACKBONE|DICT|INTERRES
   105   54   55 1    
   106   54  120 1    
   107   55   56 1    
   108   55   57 1    
   109   55  121 1    
   110   56  122 1    
   111   56  123 1    
   112   56  124 1    
   113   57   58 2    
   114   57   59 am   BACKBONE|DICT|INTERRES
   115   59   60 1    
   116   59  125 1    
   117   60   61 1    
   118   60   62 1    
   119   60  126 1    
   120   61  127 1    
   121   61  128 1    
   122   61  129 1    
   123   62   63 2    
   124   62   64 am   BACKBONE|DICT|INTERRES
   125   64   65 1    
   126   64  130 1    
   127   65   66 1    
   128   65   69 1    
   129   65  131 1    
   130   66   67 am   BACKBONE|DICT|INTERRES
   131   66   68 2    
   132   67  132 1    
   133   67  133 1    
   134   69   70 1    
   135   69  134 1    
   136   69  135 1    
   137   70   71 1    
   138   71  136 1    
   139   71  137 1    
@<TRIPOS>SUBSTRUCTURE
     1 UNK         1 GROUP             0       ****    0 ROOT    
