@<TRIPOS>MOLECULE
3R137
137   139    1
SMALL
USER_CHARGES


@<TRIPOS>ATOM
      1 CA         27.9617    0.4807    2.4333 C.3       0 UNK        -0.2020 
      2 C          27.9557   -0.8573    1.7080 C.2       0 UNK         0.4855 
      3 O          27.5688   -1.8641    2.3024 O.2       0 UNK        -0.5197 
      4 N          28.3880   -0.8591    0.4386 N.am      1 UNK        -0.4892 
      5 CA         28.4564   -1.9993   -0.4915 C.3       1 UNK         0.0835 
      6 C6         29.2919   -3.2037    0.0350 C.3       12 UNK        -0.0855 
      7 S7         31.0079   -2.7319    0.4503 S.3       12 UNK        -0.2931 
      8 C8         31.9566   -3.4609   -0.9274 C.3       12 UNK         0.0378 
      9 C9         31.5193   -2.9316   -2.2877 C.ar      12 UNK        -0.0802 
     10 C10        31.0556   -3.8126   -3.2702 C.ar      12 UNK        -0.0944 
     11 C11        30.6471   -3.3387   -4.5211 C.ar      12 UNK        -0.0787 
     12 C12        30.6837   -1.9625   -4.7727 C.ar      12 UNK        -0.0862 
     13 C13        31.1528   -1.0725   -3.8020 C.ar      12 UNK        -0.0733 
     14 C14        31.5832   -1.5633   -2.5674 C.ar      12 UNK        -0.0832 
     15 C15        31.1861    0.4211   -4.0859 C.3       12 UNK         0.0240 
     16 S16        29.8334    1.3214   -3.2560 S.3       12 UNK        -0.2522 
     17 C17        28.3470    0.4405   -3.8401 C.3       12 UNK        -0.0967 
     18 CA         27.9990    0.7255   -5.3240 C.3       5 UNK         0.0660 
     19 N          27.3197   -0.4124   -5.9439 N.am      5 UNK        -0.4015 
     20 C          27.1796   -0.5960   -7.2648 C.2       4 UNK         0.4946 
     21 O          27.6888    0.1440   -8.1072 O.2       4 UNK        -0.5353 
     22 CA         26.3029   -1.7769   -7.7331 C.3       4 UNK         0.0277 
     23 CB         27.1655   -3.0139   -8.0188 C.3       4 UNK        -0.1981 
     24 N          25.2537   -2.1516   -6.7824 N.am      4 UNK        -0.4209 
     25 C          24.2608   -1.3541   -6.3656 C.2       3 UNK         0.4942 
     26 O          24.0524   -0.2326   -6.8258 O.2       3 UNK        -0.5208 
     27 CA         23.4069   -1.8599   -5.1851 C.3       3 UNK         0.0250 
     28 CB         22.1186   -2.5188   -5.7018 C.3       3 UNK        -0.1990 
     29 N          24.1028   -2.7877   -4.2769 N.am      3 UNK        -0.4232 
     30 C          25.2583   -2.5304   -3.6448 C.2       2 UNK         0.4993 
     31 O          25.8749   -1.4710   -3.7776 O.2       2 UNK        -0.5286 
     32 CA         25.8552   -3.6667   -2.7927 C.3       2 UNK         0.0209 
     33 CB         26.2269   -4.8724   -3.6748 C.3       2 UNK        -0.1931 
     34 N          27.0593   -3.2344   -2.0753 N.am      2 UNK        -0.4546 
     35 C          27.0622   -2.4378   -0.9979 C.2       1 UNK         0.5154 
     36 O          26.0287   -2.0542   -0.4425 O.2       1 UNK        -0.5181 
     37 C          27.1690    2.0126   -5.4851 C.2       5 UNK         0.5014 
     38 O          27.7199    3.0438   -5.8701 O.2       5 UNK        -0.5248 
     39 N          25.8509    1.9175   -5.2481 N.am      6 UNK        -0.4434 
     40 CA         24.8885    3.0068   -5.4512 C.3       6 UNK         0.0363 
     41 CB         23.5312    2.6228   -4.8405 C.3       6 UNK        -0.1936 
     42 C          24.7356    3.3946   -6.9333 C.2       6 UNK         0.5081 
     43 O          24.5808    4.5768   -7.2386 O.2       6 UNK        -0.5248 
     44 N          24.8323    2.4009   -7.8274 N.am      7 UNK        -0.4718 
     45 CA         24.8854    2.5739   -9.2829 C.3       7 UNK         0.0273 
     46 CB         24.5704    1.2273   -9.9541 C.3       7 UNK        -0.1935 
     47 C          26.2312    3.1270   -9.7987 C.2       7 UNK         0.5018 
     48 O          26.3219    3.4459  -10.9849 O.2       7 UNK        -0.5186 
     49 N          27.2410    3.2229   -8.9194 N.am      8 UNK        -0.4240 
     50 CA         28.6051    3.7032   -9.1632 C.3       8 UNK         0.0235 
     51 CB         28.6059    5.1961   -9.5575 C.3       8 UNK        -0.2000 
     52 C          29.4063    2.8180  -10.1379 C.2       8 UNK         0.4941 
     53 O          30.2325    3.3334  -10.8934 O.2       8 UNK        -0.5273 
     54 N          29.1805    1.4968  -10.0858 N.am      9 UNK        -0.4262 
     55 CA         29.9311    0.5006  -10.8580 C.3       9 UNK         0.0264 
     56 CB         29.0643   -0.7537  -11.0453 C.3       9 UNK        -0.1955 
     57 C          31.2796    0.1347  -10.2088 C.2       9 UNK         0.5031 
     58 O          32.1064   -0.4973  -10.8675 O.2       9 UNK        -0.5390 
     59 N          31.4745    0.5146   -8.9359 N.am      10 UNK        -0.4204 
     60 CA         32.6804    0.3990   -8.0981 C.3       10 UNK         0.0237 
     61 CB         33.8601    1.1741   -8.7177 C.3       10 UNK        -0.1985 
     62 C          33.1090   -1.0312   -7.7146 C.2       10 UNK         0.4970 
     63 O          33.6795   -1.2006   -6.6374 O.2       10 UNK        -0.4914 
     64 N          32.8399   -2.0160   -8.5795 N.am      11 UNK        -0.4285 
     65 CA         33.1618   -3.4466   -8.4198 C.3       11 UNK         0.1007 
     66 C          34.6858   -3.7769   -8.4634 C.2       11 UNK         0.5703 
     67 N          35.5420   -2.8862   -8.9509 N.am      11 UNK        -0.7361 
     68 O          35.1014   -4.8700   -8.0851 O.2       11 UNK        -0.4986 
     69 C69        32.4373   -4.1126   -7.2125 C.3       12 UNK        -0.0947 
     70 S70        30.6261   -3.9160   -7.2855 S.3       12 UNK        -0.2240 
     71 C71        30.1502   -4.3292   -5.5723 C.3       12 UNK         0.0194 
     72 H72        26.9518    0.7393    2.7509 H         1 UNK         0.0906 
     73 H73        28.5934    0.4238    3.3194 H         1 UNK         0.0906 
     74 H74        28.3354    1.2875    1.8030 H         1 UNK         0.0906 
     75 H75        28.6720    0.0214    0.0324 H         1 UNK         0.3140 
     76 H76        28.9696   -1.6078   -1.3709 H         1 UNK         0.1085 
     77 H77        29.3225   -4.0097   -0.6999 H         1 UNK         0.0836 
     78 H78        28.8308   -3.6404    0.9217 H         1 UNK         0.0836 
     79 H79        31.8647   -4.5473   -0.8823 H         1 UNK         0.0731 
     80 H80        33.0145   -3.2371   -0.7844 H         1 UNK         0.0731 
     81 H81        31.0153   -4.8732   -3.0618 H         1 UNK         0.1312 
     82 H82        30.3496   -1.5813   -5.7275 H         1 UNK         0.1406 
     83 H83        31.9425   -0.8770   -1.8122 H         1 UNK         0.1631 
     84 H84        31.1396    0.6083   -5.1585 H         1 UNK         0.0717 
     85 H85        32.1398    0.8320   -3.7516 H         1 UNK         0.0717 
     86 H86        28.5048   -0.6263   -3.6830 H         1 UNK         0.0934 
     87 H87        27.5138    0.6904   -3.1798 H         1 UNK         0.0934 
     88 H88        28.9271    0.8701   -5.8795 H         1 UNK         0.0739 
     89 H89        26.8239   -1.0240   -5.2995 H         1 UNK         0.3093 
     90 H90        25.8180   -1.4769   -8.6629 H         1 UNK         0.0818 
     91 H91        27.9874   -2.7825   -8.6950 H         1 UNK         0.0819 
     92 H92        26.5805   -3.8064   -8.4857 H         1 UNK         0.0819 
     93 H93        27.6023   -3.4150   -7.1052 H         1 UNK         0.0819 
     94 H94        25.3343   -3.0625   -6.3560 H         1 UNK         0.3041 
     95 H95        23.1288   -0.9827   -4.5971 H         1 UNK         0.0784 
     96 H96        21.5713   -1.8423   -6.3602 H         1 UNK         0.0793 
     97 H97        22.3278   -3.4268   -6.2689 H         1 UNK         0.0793 
     98 H98        21.4489   -2.7800   -4.8822 H         1 UNK         0.0793 
     99 H99        23.6582   -3.6825   -4.1270 H         1 UNK         0.3024 
    100 H100       25.1031   -3.9741   -2.0623 H         1 UNK         0.1171 
    101 H101       26.6853   -5.6676   -3.0862 H         1 UNK         0.0786 
    102 H102       25.3476   -5.3029   -4.1554 H         1 UNK         0.0786 
    103 H103       26.9265   -4.5956   -4.4637 H         1 UNK         0.0786 
    104 H104       27.9416   -3.4780   -2.5008 H         1 UNK         0.2977 
    105 H105       25.4730    1.0235   -4.9666 H         1 UNK         0.3127 
    106 H106       25.2635    3.8840   -4.9195 H         1 UNK         0.0770 
    107 H107       23.0947    1.7526   -5.3310 H         1 UNK         0.0814 
    108 H108       22.8170    3.4415   -4.9390 H         1 UNK         0.0814 
    109 H109       23.6220    2.3998   -3.7774 H         1 UNK         0.0814 
    110 H110       24.8548    1.4460   -7.4800 H         1 UNK         0.2983 
    111 H111       24.1109    3.2890   -9.5682 H         1 UNK         0.0947 
    112 H112       24.4734    1.3433  -11.0344 H         1 UNK         0.0806 
    113 H113       23.6345    0.8050   -9.5875 H         1 UNK         0.0806 
    114 H114       25.3620    0.5000   -9.7777 H         1 UNK         0.0806 
    115 H115       27.0593    2.9271   -7.9680 H         1 UNK         0.3000 
    116 H116       29.1206    3.6242   -8.2050 H         1 UNK         0.0850 
    117 H117       29.6214    5.5928   -9.5861 H         1 UNK         0.0810 
    118 H118       28.0460    5.7955   -8.8395 H         1 UNK         0.0810 
    119 H119       28.1681    5.3560  -10.5432 H         1 UNK         0.0810 
    120 H120       28.4996    1.1319   -9.4191 H         1 UNK         0.3040 
    121 H121       30.1459    0.9105  -11.8472 H         1 UNK         0.0766 
    122 H122       28.1051   -0.5116  -11.5031 H         1 UNK         0.0812 
    123 H123       28.8690   -1.2465  -10.0949 H         1 UNK         0.0812 
    124 H124       29.5605   -1.4789  -11.6917 H         1 UNK         0.0812 
    125 H125       30.6912    0.9714   -8.4915 H         1 UNK         0.3205 
    126 H126       32.4282    0.8979   -7.1618 H         1 UNK         0.0754 
    127 H127       34.7208    1.1756   -8.0474 H         1 UNK         0.0769 
    128 H128       33.5950    2.2147   -8.9055 H         1 UNK         0.0769 
    129 H129       34.1862    0.7364   -9.6616 H         1 UNK         0.0769 
    130 H130       32.4433   -1.7450   -9.4744 H         1 UNK         0.2981 
    131 H131       32.7670   -3.9194   -9.3194 H         1 UNK         0.0541 
    132 H132       36.5233   -3.1128   -8.9868 H         1 UNK         0.3459 
    133 H133       35.2156   -1.9927   -9.2815 H         1 UNK         0.3459 
    134 H134       32.6429   -5.1838   -7.1823 H         1 UNK         0.0612 
    135 H135       32.8100   -3.7045   -6.2721 H         1 UNK         0.0612 
    136 H136       29.0639   -4.3772   -5.5137 H         1 UNK         0.0624 
    137 H137       30.5151   -5.3336   -5.3520 H         1 UNK         0.0624 
@<TRIPOS>BOND
     1    1    2 1    
     2    1   72 1    
     3    1   73 1    
     4    1   74 1    
     5    2    3 2    
     6    2    4 am   BACKBONE|DICT|INTERRES
     7    4    5 1    
     8    4   75 1    
     9    5    6 1    
    10    5   35 1    
    11    5   76 1    
    12    6    7 1    
    13    6   77 1    
    14    6   78 1    
    15    7    8 1    
    16    8    9 1    
    17    8   79 1    
    18    8   80 1    
    19    9   10 ar   
    20    9   14 ar   
    21   10   11 ar   
    22   10   81 1    
    23   11   12 ar   
    24   11   71 1    
    25   12   13 ar   
    26   12   82 1    
    27   13   14 ar   
    28   13   15 1    
    29   14   83 1    
    30   15   16 1    
    31   15   84 1    
    32   15   85 1    
    33   16   17 1    
    34   17   18 1    
    35   17   86 1    
    36   17   87 1    
    37   18   19 1    
    38   18   37 1    
    39   18   88 1    
    40   19   20 am   BACKBONE|DICT|INTERRES
    41   19   89 1    
    42   20   21 2    
    43   20   22 1    
    44   22   23 1    
    45   22   24 1    
    46   22   90 1    
    47   23   91 1    
    48   23   92 1    
    49   23   93 1    
    50   24   25 am   BACKBONE|DICT|INTERRES
    51   24   94 1    
    52   25   26 2    
    53   25   27 1    
    54   27   28 1    
    55   27   29 1    
    56   27   95 1    
    57   28   96 1    
    58   28   97 1    
    59   28   98 1    
    60   29   30 am   BACKBONE|DICT|INTERRES
    61   29   99 1    
    62   30   31 2    
    63   30   32 1    
    64   32   33 1    
    65   32   34 1    
    66   32  100 1    
    67   33  101 1    
    68   33  102 1    
    69   33  103 1    
    70   34   35 am   BACKBONE|DICT|INTERRES
    71   34  104 1    
    72   35   36 2    
    73   37   38 2    
    74   37   39 am   BACKBONE|DICT|INTERRES
    75   39   40 1    
    76   39  105 1    
    77   40   41 1    
    78   40   42 1    
    79   40  106 1    
    80   41  107 1    
    81   41  108 1    
    82   41  109 1    
    83   42   43 2    
    84   42   44 am   BACKBONE|DICT|INTERRES
    85   44   45 1    
    86   44  110 1    
    87   45   46 1    
    88   45   47 1    
    89   45  111 1    
    90   46  112 1    
    91   46  113 1    
    92   46  114 1    
    93   47   48 2    
    94   47   49 am   BACKBONE|DICT|INTERRES
    95   49   50 1    
    96   49  115 1    
    97   50   51 1    
    98   50   52 1    
    99   50  116 1    
   100   51  117 1    
   101   51  118 1    
   102   51  119 1    
   103   52   53 2    
   104   52   54 am   BACKBONE|DICT|INTERRES
   105   54   55 1    
   106   54  120 1    
   107   55   56 1    
   108   55   57 1    
   109   55  121 1    
   110   56  122 1    
   111   56  123 1    
   112   56  124 1    
   113   57   58 2    
   114   57   59 am   BACKBONE|DICT|INTERRES
   115   59   60 1    
   116   59  125 1    
   117   60   61 1    
   118   60   62 1    
   119   60  126 1    
   120   61  127 1    
   121   61  128 1    
   122   61  129 1    
   123   62   63 2    
   124   62   64 am   BACKBONE|DICT|INTERRES
   125   64   65 1    
   126   64  130 1    
   127   65   66 1    
   128   65   69 1    
   129   65  131 1    
   130   66   67 am   BACKBONE|DICT|INTERRES
   131   66   68 2    
   132   67  132 1    
   133   67  133 1    
   134   69   70 1    
   135   69  134 1    
   136   69  135 1    
   137   70   71 1    
   138   71  136 1    
   139   71  137 1    
@<TRIPOS>SUBSTRUCTURE
     1 UNK         1 GROUP             0       ****    0 ROOT    
