@<TRIPOS>MOLECULE
3R137
137   139    1
SMALL
USER_CHARGES


@<TRIPOS>ATOM
      1 CA         28.1085   -4.0960    3.8623 C.3       0 UNK        -0.2020 
      2 C          28.4974   -3.1615    2.7262 C.2       0 UNK         0.4855 
      3 O          29.5484   -2.5229    2.7919 O.2       0 UNK        -0.5197 
      4 N          27.6589   -3.0749    1.6894 N.am      1 UNK        -0.4892 
      5 CA         27.8689   -2.2343    0.5120 C.3       1 UNK         0.0835 
      6 C6         28.8792   -2.8256   -0.5130 C.3       12 UNK        -0.0855 
      7 S7         28.5906   -4.5686   -0.9944 S.3       12 UNK        -0.2931 
      8 C8         30.1574   -4.9615   -1.8377 C.3       12 UNK         0.0378 
      9 C9         30.2864   -4.1964   -3.1462 C.ar      12 UNK        -0.0802 
     10 C10        30.9602   -2.9706   -3.1824 C.ar      12 UNK        -0.0944 
     11 C11        31.0322   -2.2300   -4.3654 C.ar      12 UNK        -0.0787 
     12 C12        30.4196   -2.7373   -5.5162 C.ar      12 UNK        -0.0862 
     13 C13        29.7754   -3.9763   -5.5075 C.ar      12 UNK        -0.0733 
     14 C14        29.7143   -4.7053   -4.3164 C.ar      12 UNK        -0.0832 
     15 C15        29.1677   -4.5162   -6.7976 C.3       12 UNK         0.0240 
     16 S16        27.4067   -4.9708   -6.6652 S.3       12 UNK        -0.2522 
     17 C17        26.6376   -3.5020   -5.9081 C.3       12 UNK        -0.0967 
     18 CA         26.3244   -2.3610   -6.9114 C.3       5 UNK         0.0660 
     19 N          25.0615   -1.6950   -6.5873 N.am      5 UNK        -0.4015 
     20 C          24.4131   -0.8374   -7.3866 C.2       4 UNK         0.4946 
     21 O          24.7838   -0.5402   -8.5215 O.2       4 UNK        -0.5353 
     22 CA         23.1583   -0.1684   -6.8004 C.3       4 UNK         0.0277 
     23 CB         21.9237   -1.0616   -7.0013 C.3       4 UNK        -0.1981 
     24 N          23.3044    0.1610   -5.3787 N.am      4 UNK        -0.4209 
     25 C          24.1657    1.0735   -4.9059 C.2       3 UNK         0.4942 
     26 O          24.8944    1.7585   -5.6206 O.2       3 UNK        -0.5208 
     27 CA         24.2638    1.2207   -3.3794 C.3       3 UNK         0.0250 
     28 CB         23.1891    2.1895   -2.8608 C.3       3 UNK        -0.1990 
     29 N          24.1798   -0.0476   -2.6468 N.am      3 UNK        -0.4232 
     30 C          25.0296   -1.0745   -2.7868 C.2       2 UNK         0.4993 
     31 O          25.9360   -1.1123   -3.6235 O.2       2 UNK        -0.5286 
     32 CA         24.8234   -2.2717   -1.8475 C.3       2 UNK         0.0209 
     33 CB         24.3980   -3.5247   -2.6285 C.3       2 UNK        -0.1931 
     34 N          26.0575   -2.5558   -1.1179 N.am      2 UNK        -0.4546 
     35 C          26.4950   -1.8562   -0.0651 C.2       1 UNK         0.5154 
     36 O          25.8466   -0.9530    0.4669 O.2       1 UNK        -0.5181 
     37 C          27.4686   -1.3330   -6.9859 C.2       5 UNK         0.5014 
     38 O          28.2125   -1.3153   -7.9674 O.2       5 UNK        -0.5248 
     39 N          27.5528   -0.4669   -5.9652 N.am      6 UNK        -0.4434 
     40 CA         28.5277    0.6209   -5.8677 C.3       6 UNK         0.0363 
     41 CB         28.4337    1.2594   -4.4734 C.3       6 UNK        -0.1936 
     42 C          28.3881    1.6878   -6.9679 C.2       6 UNK         0.5081 
     43 O          29.3920    2.2892   -7.3450 O.2       6 UNK        -0.5248 
     44 N          27.1621    1.9093   -7.4604 N.am      7 UNK        -0.4718 
     45 CA         26.8770    2.7797   -8.6015 C.3       7 UNK         0.0273 
     46 CB         25.3912    3.1738   -8.5878 C.3       7 UNK        -0.1935 
     47 C          27.2503    2.1318   -9.9458 C.2       7 UNK         0.5018 
     48 O          27.7144    2.8388  -10.8414 O.2       7 UNK        -0.5186 
     49 N          27.0182    0.8173  -10.0769 N.am      8 UNK        -0.4240 
     50 CA         27.3051    0.0427  -11.2859 C.3       8 UNK         0.0235 
     51 CB         26.5453   -1.2934  -11.2380 C.3       8 UNK        -0.2000 
     52 C          28.8081   -0.1950  -11.5010 C.2       8 UNK         0.4941 
     53 O          29.2932   -0.0149  -12.6195 O.2       8 UNK        -0.5273 
     54 N          29.5106   -0.6133  -10.4413 N.am      9 UNK        -0.4262 
     55 CA         30.9515   -0.8694  -10.4527 C.3       9 UNK         0.0264 
     56 CB         31.2831   -1.8400   -9.3111 C.3       9 UNK        -0.1955 
     57 C          31.7623    0.4271  -10.2979 C.2       9 UNK         0.5031 
     58 O          31.2389    1.4442   -9.8394 O.2       9 UNK        -0.5390 
     59 N          33.0575    0.3573  -10.6271 N.am      10 UNK        -0.4204 
     60 CA         34.0213    1.4548  -10.4933 C.3       10 UNK         0.0237 
     61 CB         35.1618    1.2398  -11.5072 C.3       10 UNK        -0.1985 
     62 C          34.5344    1.6193   -9.0452 C.2       10 UNK         0.4970 
     63 O          35.7466    1.6667   -8.8271 O.2       10 UNK        -0.4914 
     64 N          33.6103    1.6975   -8.0796 N.am      11 UNK        -0.4285 
     65 CA         33.9040    1.9062   -6.6504 C.3       11 UNK         0.1007 
     66 C          34.2366    3.3810   -6.2778 C.2       11 UNK         0.5703 
     67 N          34.0450    4.3552   -7.1602 N.am      11 UNK        -0.7361 
     68 O          34.6914    3.6452   -5.1672 O.2       11 UNK        -0.4986 
     69 C69        32.7825    1.3407   -5.7396 C.3       12 UNK        -0.0947 
     70 S70        32.5658   -0.4577   -5.9318 S.3       12 UNK        -0.2240 
     71 C71        31.7273   -0.8685   -4.3626 C.3       12 UNK         0.0194 
     72 H72        28.0153   -3.5372    4.7931 H         1 UNK         0.0906 
     73 H73        27.1602   -4.5983    3.6718 H         1 UNK         0.0906 
     74 H74        28.8743   -4.8593    3.9980 H         1 UNK         0.0906 
     75 H75        26.7960   -3.6024    1.6903 H         1 UNK         0.3140 
     76 H76        28.2908   -1.2858    0.8540 H         1 UNK         0.1085 
     77 H77        29.8819   -2.7625   -0.0872 H         1 UNK         0.0836 
     78 H78        28.9051   -2.2071   -1.4123 H         1 UNK         0.0836 
     79 H79        30.9973   -4.7412   -1.1769 H         1 UNK         0.0731 
     80 H80        30.1960   -6.0345   -2.0314 H         1 UNK         0.0731 
     81 H81        31.4074   -2.5800   -2.2784 H         1 UNK         0.1312 
     82 H82        30.4397   -2.1641   -6.4287 H         1 UNK         0.1406 
     83 H83        29.2012   -5.6574   -4.2962 H         1 UNK         0.1631 
     84 H84        29.7312   -5.3977   -7.1058 H         1 UNK         0.0717 
     85 H85        29.2735   -3.7944   -7.6081 H         1 UNK         0.0717 
     86 H86        25.7040   -3.8753   -5.4874 H         1 UNK         0.0934 
     87 H87        27.2156   -3.1605   -5.0467 H         1 UNK         0.0934 
     88 H88        26.2031   -2.7914   -7.9081 H         1 UNK         0.0739 
     89 H89        24.7185   -1.8230   -5.6470 H         1 UNK         0.3093 
     90 H90        22.9974    0.7638   -7.3465 H         1 UNK         0.0818 
     91 H91        21.0143   -0.5625   -6.6664 H         1 UNK         0.0819 
     92 H92        21.7874   -1.3043   -8.0563 H         1 UNK         0.0819 
     93 H93        22.0097   -2.0040   -6.4590 H         1 UNK         0.0819 
     94 H94        22.7307   -0.3481   -4.7220 H         1 UNK         0.3041 
     95 H95        25.2418    1.6541   -3.1604 H         1 UNK         0.0784 
     96 H96        23.2452    3.1479   -3.3794 H         1 UNK         0.0793 
     97 H97        22.1823    1.7970   -3.0097 H         1 UNK         0.0793 
     98 H98        23.3172    2.3925   -1.7973 H         1 UNK         0.0793 
     99 H99        23.4656   -0.1038   -1.9346 H         1 UNK         0.3024 
    100 H100       24.0344   -2.0340   -1.1301 H         1 UNK         0.1171 
    101 H101       23.5354   -3.3232   -3.2649 H         1 UNK         0.0786 
    102 H102       24.1186   -4.3318   -1.9510 H         1 UNK         0.0786 
    103 H103       25.2021   -3.8940   -3.2635 H         1 UNK         0.0786 
    104 H104       26.6656   -3.2708   -1.4975 H         1 UNK         0.2977 
    105 H105       26.9172   -0.5813   -5.1781 H         1 UNK         0.3127 
    106 H106       29.5175    0.1779   -5.9820 H         1 UNK         0.0770 
    107 H107       27.4655    1.7358   -4.3166 H         1 UNK         0.0814 
    108 H108       29.2003    2.0243   -4.3433 H         1 UNK         0.0814 
    109 H109       28.5733    0.5185   -3.6857 H         1 UNK         0.0814 
    110 H110       26.3689    1.4655   -7.0095 H         1 UNK         0.2983 
    111 H111       27.4701    3.6911   -8.4977 H         1 UNK         0.0947 
    112 H112       25.1543    3.8352   -9.4222 H         1 UNK         0.0806 
    113 H113       25.1307    3.7023   -7.6706 H         1 UNK         0.0806 
    114 H114       24.7413    2.3015   -8.6663 H         1 UNK         0.0806 
    115 H115       26.5875    0.3182   -9.3065 H         1 UNK         0.3000 
    116 H116       26.9344    0.6076  -12.1440 H         1 UNK         0.0850 
    117 H117       26.7436   -1.8890  -12.1301 H         1 UNK         0.0810 
    118 H118       25.4681   -1.1334  -11.1879 H         1 UNK         0.0810 
    119 H119       26.8331   -1.8923  -10.3731 H         1 UNK         0.0810 
    120 H120       29.0336   -0.7286   -9.5489 H         1 UNK         0.3040 
    121 H121       31.2207   -1.3388  -11.4014 H         1 UNK         0.0766 
    122 H122       32.3372   -2.1196   -9.3134 H         1 UNK         0.0812 
    123 H123       30.7015   -2.7588   -9.3851 H         1 UNK         0.0812 
    124 H124       31.0696   -1.3804   -8.3482 H         1 UNK         0.0812 
    125 H125       33.4272   -0.5246  -10.9529 H         1 UNK         0.3205 
    126 H126       33.5235    2.3904  -10.7575 H         1 UNK         0.0754 
    127 H127       35.8699    2.0694  -11.4833 H         1 UNK         0.0769 
    128 H128       34.7798    1.1753  -12.5263 H         1 UNK         0.0769 
    129 H129       35.7211    0.3266  -11.2995 H         1 UNK         0.0769 
    130 H130       32.6315    1.6643   -8.3461 H         1 UNK         0.2981 
    131 H131       34.8107    1.3439   -6.4186 H         1 UNK         0.0541 
    132 H132       33.6663    4.1531   -8.0711 H         1 UNK         0.3459 
    133 H133       34.2714    5.3036   -6.9052 H         1 UNK         0.3459 
    134 H134       31.8307    1.8313   -5.9509 H         1 UNK         0.0612 
    135 H135       33.0071    1.5392   -4.6897 H         1 UNK         0.0612 
    136 H136       32.4689   -0.8262   -3.5635 H         1 UNK         0.0624 
    137 H137       30.9861   -0.1031   -4.1357 H         1 UNK         0.0624 
@<TRIPOS>BOND
     1    1    2 1    
     2    1   72 1    
     3    1   73 1    
     4    1   74 1    
     5    2    3 2    
     6    2    4 am   BACKBONE|DICT|INTERRES
     7    4    5 1    
     8    4   75 1    
     9    5    6 1    
    10    5   35 1    
    11    5   76 1    
    12    6    7 1    
    13    6   77 1    
    14    6   78 1    
    15    7    8 1    
    16    8    9 1    
    17    8   79 1    
    18    8   80 1    
    19    9   10 ar   
    20    9   14 ar   
    21   10   11 ar   
    22   10   81 1    
    23   11   12 ar   
    24   11   71 1    
    25   12   13 ar   
    26   12   82 1    
    27   13   14 ar   
    28   13   15 1    
    29   14   83 1    
    30   15   16 1    
    31   15   84 1    
    32   15   85 1    
    33   16   17 1    
    34   17   18 1    
    35   17   86 1    
    36   17   87 1    
    37   18   19 1    
    38   18   37 1    
    39   18   88 1    
    40   19   20 am   BACKBONE|DICT|INTERRES
    41   19   89 1    
    42   20   21 2    
    43   20   22 1    
    44   22   23 1    
    45   22   24 1    
    46   22   90 1    
    47   23   91 1    
    48   23   92 1    
    49   23   93 1    
    50   24   25 am   BACKBONE|DICT|INTERRES
    51   24   94 1    
    52   25   26 2    
    53   25   27 1    
    54   27   28 1    
    55   27   29 1    
    56   27   95 1    
    57   28   96 1    
    58   28   97 1    
    59   28   98 1    
    60   29   30 am   BACKBONE|DICT|INTERRES
    61   29   99 1    
    62   30   31 2    
    63   30   32 1    
    64   32   33 1    
    65   32   34 1    
    66   32  100 1    
    67   33  101 1    
    68   33  102 1    
    69   33  103 1    
    70   34   35 am   BACKBONE|DICT|INTERRES
    71   34  104 1    
    72   35   36 2    
    73   37   38 2    
    74   37   39 am   BACKBONE|DICT|INTERRES
    75   39   40 1    
    76   39  105 1    
    77   40   41 1    
    78   40   42 1    
    79   40  106 1    
    80   41  107 1    
    81   41  108 1    
    82   41  109 1    
    83   42   43 2    
    84   42   44 am   BACKBONE|DICT|INTERRES
    85   44   45 1    
    86   44  110 1    
    87   45   46 1    
    88   45   47 1    
    89   45  111 1    
    90   46  112 1    
    91   46  113 1    
    92   46  114 1    
    93   47   48 2    
    94   47   49 am   BACKBONE|DICT|INTERRES
    95   49   50 1    
    96   49  115 1    
    97   50   51 1    
    98   50   52 1    
    99   50  116 1    
   100   51  117 1    
   101   51  118 1    
   102   51  119 1    
   103   52   53 2    
   104   52   54 am   BACKBONE|DICT|INTERRES
   105   54   55 1    
   106   54  120 1    
   107   55   56 1    
   108   55   57 1    
   109   55  121 1    
   110   56  122 1    
   111   56  123 1    
   112   56  124 1    
   113   57   58 2    
   114   57   59 am   BACKBONE|DICT|INTERRES
   115   59   60 1    
   116   59  125 1    
   117   60   61 1    
   118   60   62 1    
   119   60  126 1    
   120   61  127 1    
   121   61  128 1    
   122   61  129 1    
   123   62   63 2    
   124   62   64 am   BACKBONE|DICT|INTERRES
   125   64   65 1    
   126   64  130 1    
   127   65   66 1    
   128   65   69 1    
   129   65  131 1    
   130   66   67 am   BACKBONE|DICT|INTERRES
   131   66   68 2    
   132   67  132 1    
   133   67  133 1    
   134   69   70 1    
   135   69  134 1    
   136   69  135 1    
   137   70   71 1    
   138   71  136 1    
   139   71  137 1    
@<TRIPOS>SUBSTRUCTURE
     1 UNK         1 GROUP             0       ****    0 ROOT    
