@<TRIPOS>MOLECULE
3R137
137   139    1
SMALL
USER_CHARGES


@<TRIPOS>ATOM
      1 CA         30.7709    0.4983    0.6497 C.3       0 UNK        -0.2020 
      2 C          30.0402   -0.4408   -0.2982 C.2       0 UNK         0.4855 
      3 O          29.9299   -0.1414   -1.4849 O.2       0 UNK        -0.5197 
      4 N          29.5518   -1.5755    0.2159 N.am      1 UNK        -0.4892 
      5 CA         28.7607   -2.5618   -0.5275 C.3       1 UNK         0.0835 
      6 C6         28.9743   -3.9782    0.0655 C.3       12 UNK        -0.0855 
      7 S7         28.6576   -5.3309   -1.1191 S.3       12 UNK        -0.2931 
      8 C8         30.2755   -5.5208   -1.9390 C.3       12 UNK         0.0378 
      9 C9         30.3651   -4.6551   -3.1869 C.ar      12 UNK        -0.0802 
     10 C10        31.0522   -3.4353   -3.1676 C.ar      12 UNK        -0.0944 
     11 C11        31.1055   -2.6265   -4.3085 C.ar      12 UNK        -0.0787 
     12 C12        30.4513   -3.0583   -5.4689 C.ar      12 UNK        -0.0862 
     13 C13        29.7971   -4.2908   -5.5175 C.ar      12 UNK        -0.0733 
     14 C14        29.7577   -5.0862   -4.3704 C.ar      12 UNK        -0.0832 
     15 C15        29.1743   -4.7642   -6.8268 C.3       12 UNK         0.0240 
     16 S16        27.4093   -5.2037   -6.7016 S.3       12 UNK        -0.2522 
     17 C17        26.6576   -3.7243   -5.9503 C.3       12 UNK        -0.0967 
     18 CA         26.3812   -2.5761   -6.9589 C.3       5 UNK         0.0660 
     19 N          25.1259   -1.8870   -6.6517 N.am      5 UNK        -0.4015 
     20 C          24.5213   -0.9839   -7.4354 C.2       4 UNK         0.4946 
     21 O          24.9269   -0.6533   -8.5496 O.2       4 UNK        -0.5353 
     22 CA         23.2652   -0.3115   -6.8555 C.3       4 UNK         0.0277 
     23 CB         22.0221   -1.1821   -7.0986 C.3       4 UNK        -0.1981 
     24 N          23.3897   -0.0149   -5.4241 N.am      4 UNK        -0.4209 
     25 C          24.2391    0.8925   -4.9218 C.2       3 UNK         0.4942 
     26 O          24.9866    1.5841   -5.6119 O.2       3 UNK        -0.5208 
     27 CA         24.2917    1.0316   -3.3911 C.3       3 UNK         0.0250 
     28 CB         23.1375    1.9148   -2.8901 C.3       3 UNK        -0.1990 
     29 N          24.3002   -0.2370   -2.6504 N.am      3 UNK        -0.4232 
     30 C          25.1841   -1.2294   -2.8248 C.2       2 UNK         0.4993 
     31 O          26.0032   -1.2713   -3.7449 O.2       2 UNK        -0.5286 
     32 CA         25.1422   -2.3882   -1.8196 C.3       2 UNK         0.0209 
     33 CB         24.4012   -3.5968   -2.4125 C.3       2 UNK        -0.1931 
     34 N          26.5110   -2.7790   -1.4804 N.am      2 UNK        -0.4546 
     35 C          27.2737   -2.1470   -0.5802 C.2       1 UNK         0.5154 
     36 O          26.8406   -1.2794    0.1848 O.2       1 UNK        -0.5181 
     37 C          27.5459   -1.5702   -7.0041 C.2       5 UNK         0.5014 
     38 O          28.2971   -1.5379   -7.9798 O.2       5 UNK        -0.5248 
     39 N          27.6373   -0.7438   -5.9536 N.am      6 UNK        -0.4434 
     40 CA         28.6150    0.3266   -5.7837 C.3       6 UNK         0.0363 
     41 CB         28.3933    0.9829   -4.4139 C.3       6 UNK        -0.1936 
     42 C          28.5666    1.3654   -6.9127 C.2       6 UNK         0.5081 
     43 O          29.6176    1.7270   -7.4404 O.2       6 UNK        -0.5248 
     44 N          27.3544    1.7906   -7.2955 N.am      7 UNK        -0.4718 
     45 CA         27.1132    2.6977   -8.4188 C.3       7 UNK         0.0273 
     46 CB         25.6375    3.1267   -8.4309 C.3       7 UNK        -0.1935 
     47 C          27.5132    2.0963   -9.7760 C.2       7 UNK         0.5018 
     48 O          28.1151    2.8007  -10.5868 O.2       7 UNK        -0.5186 
     49 N          27.1862    0.8143   -9.9968 N.am      8 UNK        -0.4240 
     50 CA         27.5137    0.0805  -11.2217 C.3       8 UNK         0.0235 
     51 CB         26.7358   -1.2451  -11.2590 C.3       8 UNK        -0.2000 
     52 C          29.0214   -0.1688  -11.3882 C.2       8 UNK         0.4941 
     53 O          29.5518    0.0466  -12.4788 O.2       8 UNK        -0.5273 
     54 N          29.6818   -0.6190  -10.3134 N.am      9 UNK        -0.4262 
     55 CA         31.1113   -0.9436  -10.3020 C.3       9 UNK         0.0264 
     56 CB         31.3708   -1.9726   -9.1954 C.3       9 UNK        -0.1955 
     57 C          32.0314    0.2789  -10.1241 C.2       9 UNK         0.5031 
     58 O          33.2320    0.1484  -10.3673 O.2       9 UNK        -0.5390 
     59 N          31.4688    1.4226   -9.7059 N.am      10 UNK        -0.4204 
     60 CA         32.1385    2.6868   -9.3785 C.3       10 UNK         0.0237 
     61 CB         32.8684    3.2817  -10.6028 C.3       10 UNK        -0.1985 
     62 C          33.0322    2.5513   -8.1309 C.2       10 UNK         0.4970 
     63 O          34.2368    2.8068   -8.1912 O.2       10 UNK        -0.4914 
     64 N          32.4053    2.1574   -7.0199 N.am      11 UNK        -0.4285 
     65 CA         33.0024    2.0255   -5.6841 C.3       11 UNK         0.1007 
     66 C          32.0275    2.5238   -4.5811 C.2       11 UNK         0.5703 
     67 N          32.2346    2.1547   -3.3241 N.am      11 UNK        -0.7361 
     68 O          31.1078    3.2963   -4.8438 O.2       11 UNK        -0.4986 
     69 C69        33.6429    0.6257   -5.4358 C.3       12 UNK        -0.0947 
     70 S70        32.5867   -0.7994   -5.8616 S.3       12 UNK        -0.2240 
     71 C71        31.8601   -1.2937   -4.2583 C.3       12 UNK         0.0194 
     72 H72        30.8187    0.1010    1.6635 H         1 UNK         0.0906 
     73 H73        31.7902    0.6630    0.3013 H         1 UNK         0.0906 
     74 H74        30.2634    1.4619    0.6860 H         1 UNK         0.0906 
     75 H75        29.6305   -1.7400    1.2095 H         1 UNK         0.3140 
     76 H76        29.1131   -2.5583   -1.5595 H         1 UNK         0.1085 
     77 H77        29.9997   -4.0874    0.4226 H         1 UNK         0.0836 
     78 H78        28.3477   -4.1300    0.9468 H         1 UNK         0.0836 
     79 H79        31.0878   -5.2952   -1.2467 H         1 UNK         0.0731 
     80 H80        30.4032   -6.5678   -2.2185 H         1 UNK         0.0731 
     81 H81        31.5339   -3.1065   -2.2566 H         1 UNK         0.1312 
     82 H82        30.4587   -2.4400   -6.3515 H         1 UNK         0.1406 
     83 H83        29.2425   -6.0372   -4.3961 H         1 UNK         0.1631 
     84 H84        29.7236   -5.6398   -7.1746 H         1 UNK         0.0717 
     85 H85        29.2888   -4.0117   -7.6075 H         1 UNK         0.0717 
     86 H86        25.7146   -4.0768   -5.5314 H         1 UNK         0.0934 
     87 H87        27.2391   -3.3972   -5.0856 H         1 UNK         0.0934 
     88 H88        26.2689   -2.9985   -7.9599 H         1 UNK         0.0739 
     89 H89        24.7552   -2.0314   -5.7244 H         1 UNK         0.3093 
     90 H90        23.1264    0.6343   -7.3841 H         1 UNK         0.0818 
     91 H91        21.1137   -0.6767   -6.7701 H         1 UNK         0.0819 
     92 H92        21.9023   -1.4006   -8.1608 H         1 UNK         0.0819 
     93 H93        22.0841   -2.1368   -6.5748 H         1 UNK         0.0819 
     94 H94        22.8049   -0.5359   -4.7869 H         1 UNK         0.3041 
     95 H95        25.2279    1.5399   -3.1519 H         1 UNK         0.0784 
     96 H96        23.1201    2.8704   -3.4166 H         1 UNK         0.0793 
     97 H97        22.1673    1.4407   -3.0432 H         1 UNK         0.0793 
     98 H98        23.2393    2.1367   -1.8275 H         1 UNK         0.0793 
     99 H99        23.6473   -0.3045   -1.8826 H         1 UNK         0.3024 
    100 H100       24.6219   -2.0663   -0.9143 H         1 UNK         0.1171 
    101 H101       24.3434   -4.4143   -1.6935 H         1 UNK         0.0786 
    102 H102       24.8941   -3.9763   -3.3072 H         1 UNK         0.0786 
    103 H103       23.3785   -3.3347   -2.6869 H         1 UNK         0.0786 
    104 H104       26.9415   -3.4772   -2.0706 H         1 UNK         0.2977 
    105 H105       26.9818   -0.8741   -5.1824 H         1 UNK         0.3127 
    106 H106       29.6051   -0.1292   -5.7953 H         1 UNK         0.0770 
    107 H107       27.4241    1.4771   -4.3536 H         1 UNK         0.0814 
    108 H108       29.1535    1.7325   -4.2046 H         1 UNK         0.0814 
    109 H109       28.4391    0.2448   -3.6136 H         1 UNK         0.0814 
    110 H110       26.5386    1.4888   -6.7682 H         1 UNK         0.2983 
    111 H111       27.7258    3.5882   -8.2612 H         1 UNK         0.0947 
    112 H112       25.4340    3.8083   -9.2579 H         1 UNK         0.0806 
    113 H113       25.3690    3.6449   -7.5102 H         1 UNK         0.0806 
    114 H114       24.9698    2.2709   -8.5385 H         1 UNK         0.0806 
    115 H115       26.6596    0.3119   -9.2893 H         1 UNK         0.3000 
    116 H116       27.1855    0.6861  -12.0693 H         1 UNK         0.0850 
    117 H117       26.9636   -1.8079  -12.1653 H         1 UNK         0.0810 
    118 H118       25.6596   -1.0718  -11.2471 H         1 UNK         0.0810 
    119 H119       26.9790   -1.8820  -10.4077 H         1 UNK         0.0810 
    120 H120       29.1592   -0.8154   -9.4599 H         1 UNK         0.3040 
    121 H121       31.3723   -1.4065  -11.2562 H         1 UNK         0.0766 
    122 H122       32.4225   -2.2593   -9.1550 H         1 UNK         0.0812 
    123 H123       31.1055   -1.5580   -8.2260 H         1 UNK         0.0812 
    124 H124       30.7874   -2.8806   -9.3474 H         1 UNK         0.0812 
    125 H125       30.4871    1.3884   -9.4581 H         1 UNK         0.3205 
    126 H126       31.3431    3.3842   -9.1100 H         1 UNK         0.0754 
    127 H127       33.2541    4.2765  -10.3769 H         1 UNK         0.0769 
    128 H128       32.1954    3.3802  -11.4547 H         1 UNK         0.0769 
    129 H129       33.7164    2.6711  -10.9137 H         1 UNK         0.0769 
    130 H130       31.3984    2.0039   -7.0593 H         1 UNK         0.2981 
    131 H131       33.8157    2.7510   -5.6275 H         1 UNK         0.0541 
    132 H132       32.9977    1.5469   -3.0763 H         1 UNK         0.3459 
    133 H133       31.6053    2.4856   -2.6104 H         1 UNK         0.3459 
    134 H134       34.0151    0.5200   -4.4165 H         1 UNK         0.0612 
    135 H135       34.5303    0.5424   -6.0646 H         1 UNK         0.0612 
    136 H136       32.6605   -1.3530   -3.5195 H         1 UNK         0.0624 
    137 H137       31.1761   -0.5149   -3.9206 H         1 UNK         0.0624 
@<TRIPOS>BOND
     1    1    2 1    
     2    1   72 1    
     3    1   73 1    
     4    1   74 1    
     5    2    3 2    
     6    2    4 am   BACKBONE|DICT|INTERRES
     7    4    5 1    
     8    4   75 1    
     9    5    6 1    
    10    5   35 1    
    11    5   76 1    
    12    6    7 1    
    13    6   77 1    
    14    6   78 1    
    15    7    8 1    
    16    8    9 1    
    17    8   79 1    
    18    8   80 1    
    19    9   10 ar   
    20    9   14 ar   
    21   10   11 ar   
    22   10   81 1    
    23   11   12 ar   
    24   11   71 1    
    25   12   13 ar   
    26   12   82 1    
    27   13   14 ar   
    28   13   15 1    
    29   14   83 1    
    30   15   16 1    
    31   15   84 1    
    32   15   85 1    
    33   16   17 1    
    34   17   18 1    
    35   17   86 1    
    36   17   87 1    
    37   18   19 1    
    38   18   37 1    
    39   18   88 1    
    40   19   20 am   BACKBONE|DICT|INTERRES
    41   19   89 1    
    42   20   21 2    
    43   20   22 1    
    44   22   23 1    
    45   22   24 1    
    46   22   90 1    
    47   23   91 1    
    48   23   92 1    
    49   23   93 1    
    50   24   25 am   BACKBONE|DICT|INTERRES
    51   24   94 1    
    52   25   26 2    
    53   25   27 1    
    54   27   28 1    
    55   27   29 1    
    56   27   95 1    
    57   28   96 1    
    58   28   97 1    
    59   28   98 1    
    60   29   30 am   BACKBONE|DICT|INTERRES
    61   29   99 1    
    62   30   31 2    
    63   30   32 1    
    64   32   33 1    
    65   32   34 1    
    66   32  100 1    
    67   33  101 1    
    68   33  102 1    
    69   33  103 1    
    70   34   35 am   BACKBONE|DICT|INTERRES
    71   34  104 1    
    72   35   36 2    
    73   37   38 2    
    74   37   39 am   BACKBONE|DICT|INTERRES
    75   39   40 1    
    76   39  105 1    
    77   40   41 1    
    78   40   42 1    
    79   40  106 1    
    80   41  107 1    
    81   41  108 1    
    82   41  109 1    
    83   42   43 2    
    84   42   44 am   BACKBONE|DICT|INTERRES
    85   44   45 1    
    86   44  110 1    
    87   45   46 1    
    88   45   47 1    
    89   45  111 1    
    90   46  112 1    
    91   46  113 1    
    92   46  114 1    
    93   47   48 2    
    94   47   49 am   BACKBONE|DICT|INTERRES
    95   49   50 1    
    96   49  115 1    
    97   50   51 1    
    98   50   52 1    
    99   50  116 1    
   100   51  117 1    
   101   51  118 1    
   102   51  119 1    
   103   52   53 2    
   104   52   54 am   BACKBONE|DICT|INTERRES
   105   54   55 1    
   106   54  120 1    
   107   55   56 1    
   108   55   57 1    
   109   55  121 1    
   110   56  122 1    
   111   56  123 1    
   112   56  124 1    
   113   57   58 2    
   114   57   59 am   BACKBONE|DICT|INTERRES
   115   59   60 1    
   116   59  125 1    
   117   60   61 1    
   118   60   62 1    
   119   60  126 1    
   120   61  127 1    
   121   61  128 1    
   122   61  129 1    
   123   62   63 2    
   124   62   64 am   BACKBONE|DICT|INTERRES
   125   64   65 1    
   126   64  130 1    
   127   65   66 1    
   128   65   69 1    
   129   65  131 1    
   130   66   67 am   BACKBONE|DICT|INTERRES
   131   66   68 2    
   132   67  132 1    
   133   67  133 1    
   134   69   70 1    
   135   69  134 1    
   136   69  135 1    
   137   70   71 1    
   138   71  136 1    
   139   71  137 1    
@<TRIPOS>SUBSTRUCTURE
     1 UNK         1 GROUP             0       ****    0 ROOT    
