@<TRIPOS>MOLECULE
3R137
137   139    1
SMALL
USER_CHARGES


@<TRIPOS>ATOM
      1 CA         28.9745    1.5904   -0.2225 C.3       0 UNK        -0.2020 
      2 C          28.0668    0.5723   -0.8939 C.2       0 UNK         0.4855 
      3 O          27.3050    0.9309   -1.7911 O.2       0 UNK        -0.5197 
      4 N          28.1234   -0.6918   -0.4526 N.am      1 UNK        -0.4892 
      5 CA         27.4132   -1.8488   -1.0251 C.3       1 UNK         0.0835 
      6 C6         27.9938   -3.1862   -0.5030 C.3       12 UNK        -0.0855 
      7 S7         29.6377   -3.4899   -1.2328 S.3       12 UNK        -0.2931 
      8 C8         29.1428   -4.4695   -2.6951 C.3       12 UNK         0.0378 
      9 C9         30.0262   -4.3372   -3.9369 C.ar      12 UNK        -0.0802 
     10 C10        31.1247   -3.4702   -4.0233 C.ar      12 UNK        -0.0944 
     11 C11        31.8600   -3.3627   -5.2089 C.ar      12 UNK        -0.0787 
     12 C12        31.4902   -4.1316   -6.3186 C.ar      12 UNK        -0.0862 
     13 C13        30.3922   -4.9927   -6.2516 C.ar      12 UNK        -0.0733 
     14 C14        29.6815   -5.1016   -5.0540 C.ar      12 UNK        -0.0832 
     15 C15        29.9743   -5.8126   -7.4659 C.3       12 UNK         0.0240 
     16 S16        28.9818   -4.8519   -8.6588 S.3       12 UNK        -0.2522 
     17 C17        27.4467   -4.5082   -7.7221 C.3       12 UNK        -0.0967 
     18 CA         26.8616   -3.0843   -7.9375 C.3       5 UNK         0.0660 
     19 N          25.5864   -2.8686   -7.2374 N.am      5 UNK        -0.4015 
     20 C          25.3561   -2.9067   -5.9163 C.2       4 UNK         0.4946 
     21 O          26.2016   -3.2172   -5.0733 O.2       4 UNK        -0.5353 
     22 CA         23.9609   -2.4530   -5.4546 C.3       4 UNK         0.0277 
     23 CB         23.2612   -3.5637   -4.6543 C.3       4 UNK        -0.1981 
     24 N          24.0167   -1.2366   -4.6376 N.am      4 UNK        -0.4209 
     25 C          24.5982   -0.0761   -4.9724 C.2       3 UNK         0.4942 
     26 O          25.1738    0.1137   -6.0448 O.2       3 UNK        -0.5208 
     27 CA         24.5518    1.0795   -3.9550 C.3       3 UNK         0.0250 
     28 CB         23.4111    2.0624   -4.2816 C.3       3 UNK        -0.1990 
     29 N          24.5370    0.6736   -2.5424 N.am      3 UNK        -0.4232 
     30 C          23.5727    0.0602   -1.8358 C.2       2 UNK         0.4993 
     31 O          22.4797   -0.2591   -2.3050 O.2       2 UNK        -0.5286 
     32 CA         23.9282   -0.3111   -0.3774 C.3       2 UNK         0.0209 
     33 CB         22.9442   -1.3214    0.2510 C.3       2 UNK        -0.1931 
     34 N          25.3184   -0.7761   -0.2598 N.am      2 UNK        -0.4546 
     35 C          25.8721   -1.8026   -0.9251 C.2       1 UNK         0.5154 
     36 O          25.2156   -2.6613   -1.5143 O.2       1 UNK        -0.5181 
     37 C          27.8738   -1.9455   -7.6723 C.2       5 UNK         0.5014 
     38 O          28.3870   -1.3698   -8.6311 O.2       5 UNK        -0.5248 
     39 N          28.1107   -1.6172   -6.3972 N.am      6 UNK        -0.4434 
     40 CA         29.0754   -0.6354   -5.9009 C.3       6 UNK         0.0363 
     41 CB         28.9302   -0.5308   -4.3777 C.3       6 UNK        -0.1936 
     42 C          28.9836    0.7611   -6.5380 C.2       6 UNK         0.5081 
     43 O          30.0244    1.3567   -6.8223 O.2       6 UNK        -0.5248 
     44 N          27.7612    1.2660   -6.7576 N.am      7 UNK        -0.4718 
     45 CA         27.5325    2.5707   -7.3863 C.3       7 UNK         0.0273 
     46 CB         26.1334    3.0897   -7.0199 C.3       7 UNK        -0.1935 
     47 C          27.7089    2.5321   -8.9124 C.2       7 UNK         0.5018 
     48 O          28.1493    3.5256   -9.4902 O.2       7 UNK        -0.5186 
     49 N          27.3741    1.3941   -9.5363 N.am      8 UNK        -0.4240 
     50 CA         27.5056    1.1684  -10.9780 C.3       8 UNK         0.0235 
     51 CB         26.6181   -0.0139  -11.4014 C.3       8 UNK        -0.2000 
     52 C          28.9670    0.9322  -11.3871 C.2       8 UNK         0.4941 
     53 O          29.4193    1.4943  -12.3847 O.2       8 UNK        -0.5273 
     54 N          29.6822    0.1268  -10.5913 N.am      9 UNK        -0.4262 
     55 CA         31.1111   -0.1545  -10.7387 C.3       9 UNK         0.0264 
     56 CB         31.4334   -1.4580   -9.9906 C.3       9 UNK        -0.1955 
     57 C          32.0154    0.9983  -10.2591 C.2       9 UNK         0.5031 
     58 O          33.2035    0.9914  -10.5845 O.2       9 UNK        -0.5390 
     59 N          31.4434    1.9582   -9.5146 N.am      10 UNK        -0.4204 
     60 CA         32.0773    3.1456   -8.9297 C.3       10 UNK         0.0237 
     61 CB         32.5661    4.1123  -10.0296 C.3       10 UNK        -0.1985 
     62 C          33.1688    2.7765   -7.9080 C.2       10 UNK         0.4970 
     63 O          34.2942    3.2734   -7.9892 O.2       10 UNK        -0.4914 
     64 N          32.8008    1.9014   -6.9689 N.am      11 UNK        -0.4285 
     65 CA         33.6612    1.3612   -5.9066 C.3       11 UNK         0.1007 
     66 C          33.0107    1.4049   -4.4948 C.2       11 UNK         0.5703 
     67 N          31.7862    1.8947   -4.3386 N.am      11 UNK        -0.7361 
     68 O          33.6430    1.0194   -3.5144 O.2       11 UNK        -0.4986 
     69 C69        34.2221   -0.0384   -6.2798 C.3       12 UNK        -0.0947 
     70 S70        32.9191   -1.2534   -6.6718 S.3       12 UNK        -0.2240 
     71 C71        33.0538   -2.4170   -5.2805 C.3       12 UNK         0.0194 
     72 H72        29.6400    2.0392   -0.9592 H         1 UNK         0.0906 
     73 H73        28.3794    2.3845    0.2270 H         1 UNK         0.0906 
     74 H74        29.5869    1.1401    0.5583 H         1 UNK         0.0906 
     75 H75        28.7670   -0.9175    0.2932 H         1 UNK         0.3140 
     76 H76        27.5898   -1.8140   -2.1016 H         1 UNK         0.1085 
     77 H77        28.0783   -3.1731    0.5850 H         1 UNK         0.0836 
     78 H78        27.3470   -4.0339   -0.7391 H         1 UNK         0.0836 
     79 H79        29.0900   -5.5187   -2.4008 H         1 UNK         0.0731 
     80 H80        28.1320   -4.1805   -2.9895 H         1 UNK         0.0731 
     81 H81        31.4098   -2.8636   -3.1760 H         1 UNK         0.1312 
     82 H82        32.0482   -4.0471   -7.2412 H         1 UNK         0.1406 
     83 H83        28.8348   -5.7724   -4.9955 H         1 UNK         0.1631 
     84 H84        29.4104   -6.6951   -7.1595 H         1 UNK         0.0717 
     85 H85        30.8651   -6.1854   -7.9736 H         1 UNK         0.0717 
     86 H86        26.7069   -5.2524   -8.0201 H         1 UNK         0.0934 
     87 H87        27.6181   -4.6816   -6.6631 H         1 UNK         0.0934 
     88 H88        26.6107   -3.0107   -8.9971 H         1 UNK         0.0739 
     89 H89        24.8317   -2.5545   -7.8311 H         1 UNK         0.3093 
     90 H90        23.3506   -2.2276   -6.3312 H         1 UNK         0.0818 
     91 H91        22.2470   -3.2762   -4.3765 H         1 UNK         0.0819 
     92 H92        23.1906   -4.4823   -5.2381 H         1 UNK         0.0819 
     93 H93        23.8046   -3.7999   -3.7378 H         1 UNK         0.0819 
     94 H94        23.5493   -1.2715   -3.7392 H         1 UNK         0.3041 
     95 H95        25.4916    1.6201   -4.0777 H         1 UNK         0.0784 
     96 H96        23.5037    2.4393   -5.3010 H         1 UNK         0.0793 
     97 H97        22.4306    1.5926   -4.2011 H         1 UNK         0.0793 
     98 H98        23.4275    2.9245   -3.6150 H         1 UNK         0.0793 
     99 H99        25.4330    0.8153   -2.0790 H         1 UNK         0.3024 
    100 H100       23.8585    0.6160    0.1939 H         1 UNK         0.1171 
    101 H101       22.8986   -2.2527   -0.3138 H         1 UNK         0.0786 
    102 H102       21.9336   -0.9126    0.2802 H         1 UNK         0.0786 
    103 H103       23.2250   -1.5637    1.2758 H         1 UNK         0.0786 
    104 H104       25.9577   -0.1369    0.1925 H         1 UNK         0.2977 
    105 H105       27.5953   -2.1455   -5.6966 H         1 UNK         0.3127 
    106 H106       30.0668   -1.0298   -6.1244 H         1 UNK         0.0770 
    107 H107       29.6346    0.1866   -3.9576 H         1 UNK         0.0814 
    108 H108       29.1217   -1.4877   -3.8954 H         1 UNK         0.0814 
    109 H109       27.9269   -0.2084   -4.0981 H         1 UNK         0.0814 
    110 H110       26.9385    0.7254   -6.4989 H         1 UNK         0.2983 
    111 H111       28.2640    3.2793   -6.9906 H         1 UNK         0.0947 
    112 H112       25.9598    4.0776   -7.4488 H         1 UNK         0.0806 
    113 H113       26.0156    3.1820   -5.9407 H         1 UNK         0.0806 
    114 H114       25.3466    2.4321   -7.3909 H         1 UNK         0.0806 
    115 H115       27.0848    0.6072   -8.9719 H         1 UNK         0.3000 
    116 H116       27.1525    2.0606  -11.5002 H         1 UNK         0.0850 
    117 H117       25.5703    0.1734  -11.1665 H         1 UNK         0.0810 
    118 H118       26.9116   -0.9417  -10.9093 H         1 UNK         0.0810 
    119 H119       26.6832   -0.1823  -12.4772 H         1 UNK         0.0810 
    120 H120       29.2068   -0.3439   -9.8197 H         1 UNK         0.3040 
    121 H121       31.3255   -0.3100  -11.7980 H         1 UNK         0.0766 
    122 H122       32.5003   -1.6829  -10.0229 H         1 UNK         0.0812 
    123 H123       30.9075   -2.3063  -10.4289 H         1 UNK         0.0812 
    124 H124       31.1405   -1.3977   -8.9426 H         1 UNK         0.0812 
    125 H125       30.4715    1.8267   -9.2711 H         1 UNK         0.3205 
    126 H126       31.2954    3.6593   -8.3679 H         1 UNK         0.0754 
    127 H127       32.9319    5.0435   -9.5953 H         1 UNK         0.0769 
    128 H128       31.7592    4.3698  -10.7158 H         1 UNK         0.0769 
    129 H129       33.3809    3.6852  -10.6151 H         1 UNK         0.0769 
    130 H130       31.8422    1.5580   -6.9723 H         1 UNK         0.2981 
    131 H131       34.5223    2.0235   -5.8039 H         1 UNK         0.0541 
    132 H132       31.2393    2.1821   -5.1366 H         1 UNK         0.3459 
    133 H133       31.3941    1.9419   -3.4128 H         1 UNK         0.3459 
    134 H134       34.8717   -0.4242   -5.4923 H         1 UNK         0.0612 
    135 H135       34.8564    0.0536   -7.1625 H         1 UNK         0.0612 
    136 H136       33.9704   -2.9985   -5.3852 H         1 UNK         0.0624 
    137 H137       33.1453   -1.8472   -4.3544 H         1 UNK         0.0624 
@<TRIPOS>BOND
     1    1    2 1    
     2    1   72 1    
     3    1   73 1    
     4    1   74 1    
     5    2    3 2    
     6    2    4 am   BACKBONE|DICT|INTERRES
     7    4    5 1    
     8    4   75 1    
     9    5    6 1    
    10    5   35 1    
    11    5   76 1    
    12    6    7 1    
    13    6   77 1    
    14    6   78 1    
    15    7    8 1    
    16    8    9 1    
    17    8   79 1    
    18    8   80 1    
    19    9   10 ar   
    20    9   14 ar   
    21   10   11 ar   
    22   10   81 1    
    23   11   12 ar   
    24   11   71 1    
    25   12   13 ar   
    26   12   82 1    
    27   13   14 ar   
    28   13   15 1    
    29   14   83 1    
    30   15   16 1    
    31   15   84 1    
    32   15   85 1    
    33   16   17 1    
    34   17   18 1    
    35   17   86 1    
    36   17   87 1    
    37   18   19 1    
    38   18   37 1    
    39   18   88 1    
    40   19   20 am   BACKBONE|DICT|INTERRES
    41   19   89 1    
    42   20   21 2    
    43   20   22 1    
    44   22   23 1    
    45   22   24 1    
    46   22   90 1    
    47   23   91 1    
    48   23   92 1    
    49   23   93 1    
    50   24   25 am   BACKBONE|DICT|INTERRES
    51   24   94 1    
    52   25   26 2    
    53   25   27 1    
    54   27   28 1    
    55   27   29 1    
    56   27   95 1    
    57   28   96 1    
    58   28   97 1    
    59   28   98 1    
    60   29   30 am   BACKBONE|DICT|INTERRES
    61   29   99 1    
    62   30   31 2    
    63   30   32 1    
    64   32   33 1    
    65   32   34 1    
    66   32  100 1    
    67   33  101 1    
    68   33  102 1    
    69   33  103 1    
    70   34   35 am   BACKBONE|DICT|INTERRES
    71   34  104 1    
    72   35   36 2    
    73   37   38 2    
    74   37   39 am   BACKBONE|DICT|INTERRES
    75   39   40 1    
    76   39  105 1    
    77   40   41 1    
    78   40   42 1    
    79   40  106 1    
    80   41  107 1    
    81   41  108 1    
    82   41  109 1    
    83   42   43 2    
    84   42   44 am   BACKBONE|DICT|INTERRES
    85   44   45 1    
    86   44  110 1    
    87   45   46 1    
    88   45   47 1    
    89   45  111 1    
    90   46  112 1    
    91   46  113 1    
    92   46  114 1    
    93   47   48 2    
    94   47   49 am   BACKBONE|DICT|INTERRES
    95   49   50 1    
    96   49  115 1    
    97   50   51 1    
    98   50   52 1    
    99   50  116 1    
   100   51  117 1    
   101   51  118 1    
   102   51  119 1    
   103   52   53 2    
   104   52   54 am   BACKBONE|DICT|INTERRES
   105   54   55 1    
   106   54  120 1    
   107   55   56 1    
   108   55   57 1    
   109   55  121 1    
   110   56  122 1    
   111   56  123 1    
   112   56  124 1    
   113   57   58 2    
   114   57   59 am   BACKBONE|DICT|INTERRES
   115   59   60 1    
   116   59  125 1    
   117   60   61 1    
   118   60   62 1    
   119   60  126 1    
   120   61  127 1    
   121   61  128 1    
   122   61  129 1    
   123   62   63 2    
   124   62   64 am   BACKBONE|DICT|INTERRES
   125   64   65 1    
   126   64  130 1    
   127   65   66 1    
   128   65   69 1    
   129   65  131 1    
   130   66   67 am   BACKBONE|DICT|INTERRES
   131   66   68 2    
   132   67  132 1    
   133   67  133 1    
   134   69   70 1    
   135   69  134 1    
   136   69  135 1    
   137   70   71 1    
   138   71  136 1    
   139   71  137 1    
@<TRIPOS>SUBSTRUCTURE
     1 UNK         1 GROUP             0       ****    0 ROOT    
