@<TRIPOS>MOLECULE
3R137
137   139    1
SMALL
USER_CHARGES


@<TRIPOS>ATOM
      1 CA         25.2948   -5.5798   -2.4425 C.3       0 UNK        -0.2020 
      2 C          26.0460   -4.9211   -1.2961 C.2       0 UNK         0.4855 
      3 O          25.5286   -4.8564   -0.1809 O.2       0 UNK        -0.5197 
      4 N          27.2622   -4.4282   -1.5628 N.am      1 UNK        -0.4892 
      5 CA         28.1395   -3.7784   -0.5752 C.3       1 UNK         0.0835 
      6 C6         29.6431   -4.0153   -0.8728 C.3       12 UNK        -0.0855 
      7 S7         30.0512   -5.7964   -0.9857 S.3       12 UNK        -0.2931 
      8 C8         31.4808   -5.8208   -2.1248 C.3       12 UNK         0.0378 
      9 C9         31.2341   -5.0774   -3.4337 C.ar      12 UNK        -0.0802 
     10 C10        32.1821   -4.1613   -3.9006 C.ar      12 UNK        -0.0944 
     11 C11        31.9495   -3.4275   -5.0675 C.ar      12 UNK        -0.0787 
     12 C12        30.7565   -3.6155   -5.7704 C.ar      12 UNK        -0.0862 
     13 C13        29.7903   -4.5099   -5.3000 C.ar      12 UNK        -0.0733 
     14 C14        30.0496   -5.2649   -4.1538 C.ar      12 UNK        -0.0832 
     15 C15        28.4371   -4.6106   -5.9868 C.3       12 UNK         0.0240 
     16 S16        27.1322   -3.7796   -5.0159 S.3       12 UNK        -0.2522 
     17 C17        27.6930   -2.0437   -5.0311 C.3       12 UNK        -0.0967 
     18 CA         27.1166   -1.2792   -6.2428 C.3       5 UNK         0.0660 
     19 N          25.6841   -1.0046   -6.0936 N.am      5 UNK        -0.4015 
     20 C          24.9132   -0.4758   -7.0547 C.2       4 UNK         0.4946 
     21 O          25.3261   -0.2121   -8.1838 O.2       4 UNK        -0.5353 
     22 CA         23.4620   -0.1150   -6.6954 C.3       4 UNK         0.0277 
     23 CB         22.5141   -1.2521   -7.1065 C.3       4 UNK        -0.1981 
     24 N          23.2449    0.2153   -5.2829 N.am      4 UNK        -0.4209 
     25 C          23.8977    1.1556   -4.5836 C.2       3 UNK         0.4942 
     26 O          24.8017    1.8517   -5.0478 O.2       3 UNK        -0.5208 
     27 CA         23.5131    1.3317   -3.1041 C.3       3 UNK         0.0250 
     28 CB         22.2090    0.6067   -2.6963 C.3       3 UNK        -0.1990 
     29 N          24.6098    0.9488   -2.2071 N.am      3 UNK        -0.4232 
     30 C          25.2270   -0.2409   -2.1473 C.2       2 UNK         0.4993 
     31 O          24.9964   -1.1814   -2.9157 O.2       2 UNK        -0.5286 
     32 CA         26.2584   -0.4132   -1.0209 C.3       2 UNK         0.0209 
     33 CB         25.6189   -0.1564    0.3632 C.3       2 UNK        -0.1931 
     34 N          26.7874   -1.7734   -1.0868 N.am      2 UNK        -0.4546 
     35 C          27.8255   -2.2731   -0.4049 C.2       1 UNK         0.5154 
     36 O          28.5259   -1.5933    0.3472 O.2       1 UNK        -0.5181 
     37 C          27.9522   -0.0178   -6.5466 C.2       5 UNK         0.5014 
     38 O          28.9496   -0.1348   -7.2560 O.2       5 UNK        -0.5248 
     39 N          27.5219    1.1586   -6.0640 N.am      6 UNK        -0.4434 
     40 CA         28.1697    2.4429   -6.3492 C.3       6 UNK         0.0363 
     41 CB         27.7705    3.4615   -5.2685 C.3       6 UNK        -0.1936 
     42 C          27.8554    2.9866   -7.7578 C.2       6 UNK         0.5081 
     43 O          28.4970    3.9490   -8.1806 O.2       6 UNK        -0.5248 
     44 N          26.8751    2.3905   -8.4515 N.am      7 UNK        -0.4718 
     45 CA         26.5542    2.6743   -9.8502 C.3       7 UNK         0.0273 
     46 CB         25.0284    2.7713  -10.0176 C.3       7 UNK        -0.1935 
     47 C          27.1356    1.5900  -10.7701 C.2       7 UNK         0.5018 
     48 O          27.6664    1.9214  -11.8308 O.2       7 UNK        -0.5186 
     49 N          27.0206    0.3188  -10.3571 N.am      8 UNK        -0.4240 
     50 CA         27.4882   -0.8523  -11.1018 C.3       8 UNK         0.0235 
     51 CB         26.8816   -2.1219  -10.4823 C.3       8 UNK        -0.2000 
     52 C          29.0195   -0.9750  -11.1780 C.2       8 UNK         0.4941 
     53 O          29.5226   -1.5020  -12.1717 O.2       8 UNK        -0.5273 
     54 N          29.7285   -0.5043  -10.1456 N.am      9 UNK        -0.4262 
     55 CA         31.1867   -0.4892  -10.0609 C.3       9 UNK         0.0264 
     56 CB         31.6345   -1.5234   -9.0142 C.3       9 UNK        -0.1955 
     57 C          31.6660    0.9174   -9.6801 C.2       9 UNK         0.5031 
     58 O          30.8660    1.7609   -9.2722 O.2       9 UNK        -0.5390 
     59 N          32.9788    1.1407   -9.8134 N.am      10 UNK        -0.4204 
     60 CA         33.6438    2.4097   -9.5009 C.3       10 UNK         0.0237 
     61 CB         34.9578    2.4855  -10.2988 C.3       10 UNK        -0.1985 
     62 C          33.9116    2.6272   -7.9978 C.2       10 UNK         0.4970 
     63 O          34.3456    3.7201   -7.6295 O.2       10 UNK        -0.4914 
     64 N          33.6984    1.5980   -7.1660 N.am      11 UNK        -0.4285 
     65 CA         33.9183    1.6355   -5.7135 C.3       11 UNK         0.1007 
     66 C          32.9545    2.5872   -4.9445 C.2       11 UNK         0.5703 
     67 N          33.3226    2.9896   -3.7350 N.am      11 UNK        -0.7361 
     68 O          31.8773    2.9476   -5.4150 O.2       11 UNK        -0.4986 
     69 C69        33.9693    0.2065   -5.1081 C.3       12 UNK        -0.0947 
     70 S70        32.3919   -0.7110   -5.1803 S.3       12 UNK        -0.2240 
     71 C71        32.9669   -2.4000   -5.5397 C.3       12 UNK         0.0194 
     72 H72        25.9766   -5.9565   -3.2045 H         1 UNK         0.0906 
     73 H73        24.6183   -4.8637   -2.9087 H         1 UNK         0.0906 
     74 H74        24.7054   -6.4207   -2.0777 H         1 UNK         0.0906 
     75 H75        27.6289   -4.4858   -2.5033 H         1 UNK         0.3140 
     76 H76        27.9397   -4.2259    0.4012 H         1 UNK         0.1085 
     77 H77        29.9231   -3.4992   -1.7918 H         1 UNK         0.0836 
     78 H78        30.2647   -3.5853   -0.0850 H         1 UNK         0.0836 
     79 H79        32.3404   -5.4000   -1.6006 H         1 UNK         0.0731 
     80 H80        31.7345   -6.8571   -2.3508 H         1 UNK         0.0731 
     81 H81        33.0950   -4.0018   -3.3429 H         1 UNK         0.1312 
     82 H82        30.5567   -3.0237   -6.6525 H         1 UNK         0.1406 
     83 H83        29.3032   -5.9579   -3.7898 H         1 UNK         0.1631 
     84 H84        28.1706   -5.6607   -6.1153 H         1 UNK         0.0717 
     85 H85        28.4747   -4.1780   -6.9878 H         1 UNK         0.0717 
     86 H86        27.3901   -1.5687   -4.0973 H         1 UNK         0.0934 
     87 H87        28.7821   -2.0132   -5.0211 H         1 UNK         0.0934 
     88 H88        27.2224   -1.9176   -7.1216 H         1 UNK         0.0739 
     89 H89        25.2810   -1.1845   -5.1813 H         1 UNK         0.3093 
     90 H90        23.2031    0.7731   -7.2757 H         1 UNK         0.0818 
     91 H91        21.4702   -0.9714   -6.9652 H         1 UNK         0.0819 
     92 H92        22.6394   -1.5022   -8.1613 H         1 UNK         0.0819 
     93 H93        22.7002   -2.1606   -6.5321 H         1 UNK         0.0819 
     94 H94        22.5446   -0.3259   -4.7969 H         1 UNK         0.3041 
     95 H95        23.3524    2.4015   -2.9616 H         1 UNK         0.0784 
     96 H96        21.3706    0.9157   -3.3224 H         1 UNK         0.0793 
     97 H97        22.2968   -0.4784   -2.7634 H         1 UNK         0.0793 
     98 H98        21.9387    0.8463   -1.6677 H         1 UNK         0.0793 
     99 H99        24.9040    1.6684   -1.5617 H         1 UNK         0.3024 
    100 H100       27.0754    0.2910   -1.1921 H         1 UNK         0.1171 
    101 H101       25.2324    0.8596    0.4476 H         1 UNK         0.0786 
    102 H102       26.3389   -0.2803    1.1718 H         1 UNK         0.0786 
    103 H103       24.7889   -0.8387    0.5518 H         1 UNK         0.0786 
    104 H104       26.2787   -2.3776   -1.7220 H         1 UNK         0.2977 
    105 H105       26.6454    1.2038   -5.5518 H         1 UNK         0.3127 
    106 H106       29.2520    2.3016   -6.2954 H         1 UNK         0.0770 
    107 H107       26.7059    3.6939   -5.3050 H         1 UNK         0.0814 
    108 H108       28.3120    4.3990   -5.4015 H         1 UNK         0.0814 
    109 H109       28.0030    3.0937   -4.2691 H         1 UNK         0.0814 
    110 H110       26.3946    1.6042   -8.0316 H         1 UNK         0.2983 
    111 H111       26.9860    3.6312  -10.1523 H         1 UNK         0.0947 
    112 H112       24.7648    2.9977  -11.0516 H         1 UNK         0.0806 
    113 H113       24.6132    3.5651   -9.3964 H         1 UNK         0.0806 
    114 H114       24.5263    1.8410   -9.7502 H         1 UNK         0.0806 
    115 H115       26.4979    0.1304   -9.5034 H         1 UNK         0.3000 
    116 H116       27.1163   -0.7633  -12.1249 H         1 UNK         0.0850 
    117 H117       27.1624   -3.0077  -11.0538 H         1 UNK         0.0810 
    118 H118       25.7924   -2.0766  -10.4676 H         1 UNK         0.0810 
    119 H119       27.2243   -2.2726   -9.4587 H         1 UNK         0.0810 
    120 H120       29.2546   -0.0588   -9.3656 H         1 UNK         0.3040 
    121 H121       31.6283   -0.7419  -11.0273 H         1 UNK         0.0766 
    122 H122       32.7210   -1.6038   -8.9726 H         1 UNK         0.0812 
    123 H123       31.2466   -2.5156   -9.2451 H         1 UNK         0.0812 
    124 H124       31.2866   -1.2516   -8.0175 H         1 UNK         0.0812 
    125 H125       33.5687    0.3958  -10.1573 H         1 UNK         0.3205 
    126 H126       33.0012    3.2289   -9.8312 H         1 UNK         0.0754 
    127 H127       35.6525    1.6956  -10.0100 H         1 UNK         0.0769 
    128 H128       34.7772    2.4003  -11.3706 H         1 UNK         0.0769 
    129 H129       35.4626    3.4386  -10.1345 H         1 UNK         0.0769 
    130 H130       33.2926    0.7512   -7.5312 H         1 UNK         0.2981 
    131 H131       34.9156    2.0599   -5.5807 H         1 UNK         0.0541 
    132 H132       34.1986    2.6979   -3.3306 H         1 UNK         0.3459 
    133 H133       32.7099    3.5991   -3.2166 H         1 UNK         0.3459 
    134 H134       34.7408   -0.3695   -5.6213 H         1 UNK         0.0612 
    135 H135       34.2841    0.2491   -4.0641 H         1 UNK         0.0612 
    136 H136       33.1422   -2.5085   -6.6103 H         1 UNK         0.0624 
    137 H137       33.9262   -2.5715   -5.0488 H         1 UNK         0.0624 
@<TRIPOS>BOND
     1    1    2 1    
     2    1   72 1    
     3    1   73 1    
     4    1   74 1    
     5    2    3 2    
     6    2    4 am   BACKBONE|DICT|INTERRES
     7    4    5 1    
     8    4   75 1    
     9    5    6 1    
    10    5   35 1    
    11    5   76 1    
    12    6    7 1    
    13    6   77 1    
    14    6   78 1    
    15    7    8 1    
    16    8    9 1    
    17    8   79 1    
    18    8   80 1    
    19    9   10 ar   
    20    9   14 ar   
    21   10   11 ar   
    22   10   81 1    
    23   11   12 ar   
    24   11   71 1    
    25   12   13 ar   
    26   12   82 1    
    27   13   14 ar   
    28   13   15 1    
    29   14   83 1    
    30   15   16 1    
    31   15   84 1    
    32   15   85 1    
    33   16   17 1    
    34   17   18 1    
    35   17   86 1    
    36   17   87 1    
    37   18   19 1    
    38   18   37 1    
    39   18   88 1    
    40   19   20 am   BACKBONE|DICT|INTERRES
    41   19   89 1    
    42   20   21 2    
    43   20   22 1    
    44   22   23 1    
    45   22   24 1    
    46   22   90 1    
    47   23   91 1    
    48   23   92 1    
    49   23   93 1    
    50   24   25 am   BACKBONE|DICT|INTERRES
    51   24   94 1    
    52   25   26 2    
    53   25   27 1    
    54   27   28 1    
    55   27   29 1    
    56   27   95 1    
    57   28   96 1    
    58   28   97 1    
    59   28   98 1    
    60   29   30 am   BACKBONE|DICT|INTERRES
    61   29   99 1    
    62   30   31 2    
    63   30   32 1    
    64   32   33 1    
    65   32   34 1    
    66   32  100 1    
    67   33  101 1    
    68   33  102 1    
    69   33  103 1    
    70   34   35 am   BACKBONE|DICT|INTERRES
    71   34  104 1    
    72   35   36 2    
    73   37   38 2    
    74   37   39 am   BACKBONE|DICT|INTERRES
    75   39   40 1    
    76   39  105 1    
    77   40   41 1    
    78   40   42 1    
    79   40  106 1    
    80   41  107 1    
    81   41  108 1    
    82   41  109 1    
    83   42   43 2    
    84   42   44 am   BACKBONE|DICT|INTERRES
    85   44   45 1    
    86   44  110 1    
    87   45   46 1    
    88   45   47 1    
    89   45  111 1    
    90   46  112 1    
    91   46  113 1    
    92   46  114 1    
    93   47   48 2    
    94   47   49 am   BACKBONE|DICT|INTERRES
    95   49   50 1    
    96   49  115 1    
    97   50   51 1    
    98   50   52 1    
    99   50  116 1    
   100   51  117 1    
   101   51  118 1    
   102   51  119 1    
   103   52   53 2    
   104   52   54 am   BACKBONE|DICT|INTERRES
   105   54   55 1    
   106   54  120 1    
   107   55   56 1    
   108   55   57 1    
   109   55  121 1    
   110   56  122 1    
   111   56  123 1    
   112   56  124 1    
   113   57   58 2    
   114   57   59 am   BACKBONE|DICT|INTERRES
   115   59   60 1    
   116   59  125 1    
   117   60   61 1    
   118   60   62 1    
   119   60  126 1    
   120   61  127 1    
   121   61  128 1    
   122   61  129 1    
   123   62   63 2    
   124   62   64 am   BACKBONE|DICT|INTERRES
   125   64   65 1    
   126   64  130 1    
   127   65   66 1    
   128   65   69 1    
   129   65  131 1    
   130   66   67 am   BACKBONE|DICT|INTERRES
   131   66   68 2    
   132   67  132 1    
   133   67  133 1    
   134   69   70 1    
   135   69  134 1    
   136   69  135 1    
   137   70   71 1    
   138   71  136 1    
   139   71  137 1    
@<TRIPOS>SUBSTRUCTURE
     1 UNK         1 GROUP             0       ****    0 ROOT    
