@<TRIPOS>MOLECULE
3R137
137   139    1
SMALL
USER_CHARGES


@<TRIPOS>ATOM
      1 CA         24.7809   -6.7571    1.1850 C.3       0 UNK        -0.2020 
      2 C          25.5188   -5.4265    1.1871 C.2       0 UNK         0.4855 
      3 O          25.2317   -4.5682    2.0227 O.2       0 UNK        -0.5197 
      4 N          26.4738   -5.2529    0.2657 N.am      1 UNK        -0.4892 
      5 CA         27.2311   -4.0139    0.0630 C.3       1 UNK         0.0835 
      6 C6         28.6025   -4.2866   -0.6103 C.3       12 UNK        -0.0855 
      7 S7         28.5318   -5.2300   -2.1774 S.3       12 UNK        -0.2931 
      8 C8         28.5877   -3.9274   -3.4509 C.3       12 UNK         0.0378 
      9 C9         29.8501   -3.0785   -3.3765 C.ar      12 UNK        -0.0802 
     10 C10        31.0806   -3.6007   -3.7848 C.ar      12 UNK        -0.0944 
     11 C11        32.2444   -2.8293   -3.7010 C.ar      12 UNK        -0.0787 
     12 C12        32.1679   -1.5229   -3.2042 C.ar      12 UNK        -0.0862 
     13 C13        30.9404   -0.9820   -2.8043 C.ar      12 UNK        -0.0733 
     14 C14        29.7880   -1.7670   -2.8985 C.ar      12 UNK        -0.0832 
     15 C15        30.8764    0.4171   -2.1968 C.3       12 UNK         0.0240 
     16 S16        29.5189    1.4489   -2.8525 S.3       12 UNK        -0.2522 
     17 C17        30.2092    2.0217   -4.4386 C.3       12 UNK        -0.0967 
     18 CA         29.3035    1.8046   -5.6807 C.3       5 UNK         0.0660 
     19 N          28.7543    0.4490   -5.8039 N.am      5 UNK        -0.4015 
     20 C          28.4541   -0.1214   -6.9816 C.2       4 UNK         0.4946 
     21 O          28.6611    0.4081   -8.0733 O.2       4 UNK        -0.5353 
     22 CA         27.8204   -1.5191   -6.9627 C.3       4 UNK         0.0277 
     23 CB         28.9078   -2.6036   -6.9507 C.3       4 UNK        -0.1981 
     24 N          26.8748   -1.7263   -5.8640 N.am      4 UNK        -0.4209 
     25 C          25.6983   -1.0911   -5.7729 C.2       3 UNK         0.4942 
     26 O          25.3340   -0.2088   -6.5498 O.2       3 UNK        -0.5208 
     27 CA         24.7770   -1.4968   -4.6124 C.3       3 UNK         0.0250 
     28 CB         24.1839   -2.8955   -4.8488 C.3       3 UNK        -0.1990 
     29 N          25.3873   -1.4451   -3.2801 N.am      3 UNK        -0.4232 
     30 C          26.0504   -0.4131   -2.7469 C.2       2 UNK         0.4993 
     31 O          26.4110    0.5689   -3.3929 O.2       2 UNK        -0.5286 
     32 CA         26.3461   -0.4559   -1.2343 C.3       2 UNK         0.0209 
     33 CB         25.0955   -0.0401   -0.4363 C.3       2 UNK        -0.1931 
     34 N          26.9152   -1.7058   -0.6980 N.am      2 UNK        -0.4546 
     35 C          26.3974   -2.9443   -0.6802 C.2       1 UNK         0.5154 
     36 O          25.3306   -3.2508   -1.2208 O.2       1 UNK        -0.5181 
     37 C          28.2073    2.8787   -5.8145 C.2       5 UNK         0.5014 
     38 O          28.4833    3.9306   -6.3925 O.2       5 UNK        -0.5248 
     39 N          26.9842    2.5973   -5.3373 N.am      6 UNK        -0.4434 
     40 CA         25.8104    3.4568   -5.5216 C.3       6 UNK         0.0363 
     41 CB         24.6422    2.9402   -4.6665 C.3       6 UNK        -0.1936 
     42 C          25.3935    3.5768   -6.9977 C.2       6 UNK         0.5081 
     43 O          25.1007    4.6812   -7.4568 O.2       6 UNK        -0.5248 
     44 N          25.3993    2.4477   -7.7198 N.am      7 UNK        -0.4718 
     45 CA         25.1310    2.3864   -9.1594 C.3       7 UNK         0.0273 
     46 CB         24.7495    0.9446   -9.5335 C.3       7 UNK        -0.1935 
     47 C          26.3153    2.8549  -10.0246 C.2       7 UNK         0.5018 
     48 O          26.1016    3.1835  -11.1921 O.2       7 UNK        -0.5186 
     49 N          27.5311    2.8383   -9.4545 N.am      8 UNK        -0.4240 
     50 CA         28.8326    3.0346  -10.1092 C.3       8 UNK         0.0235 
     51 CB         28.9890    4.4832  -10.6176 C.3       8 UNK        -0.2000 
     52 C          29.0895    1.9714  -11.1975 C.2       8 UNK         0.4941 
     53 O          29.5643    2.2933  -12.2885 O.2       8 UNK        -0.5273 
     54 N          28.7317    0.7211  -10.8790 N.am      9 UNK        -0.4262 
     55 CA         28.7599   -0.4243  -11.7889 C.3       9 UNK         0.0264 
     56 CB         27.6193   -1.3828  -11.4077 C.3       9 UNK        -0.1955 
     57 C          30.1039   -1.1685  -11.7763 C.2       9 UNK         0.5031 
     58 O          30.4244   -1.8395  -12.7587 O.2       9 UNK        -0.5390 
     59 N          30.8546   -1.0556  -10.6752 N.am      10 UNK        -0.4204 
     60 CA         32.1468   -1.7014  -10.4545 C.3       10 UNK         0.0237 
     61 CB         31.9565   -3.2054  -10.1424 C.3       10 UNK        -0.1985 
     62 C          32.8855   -0.9144   -9.3626 C.2       10 UNK         0.4970 
     63 O          32.9028    0.3165   -9.4237 O.2       10 UNK        -0.4914 
     64 N          33.4555   -1.6192   -8.3769 N.am      11 UNK        -0.4285 
     65 CA         34.0615   -1.0455   -7.1640 C.3       11 UNK         0.1007 
     66 C          33.0856   -0.2312   -6.2716 C.2       11 UNK         0.5703 
     67 N          31.7877   -0.4977   -6.3317 N.am      11 UNK        -0.7361 
     68 O          33.5144    0.6441   -5.5241 O.2       11 UNK        -0.4986 
     69 C69        34.8067   -2.1234   -6.3326 C.3       12 UNK        -0.0947 
     70 S70        33.7849   -3.5818   -5.9024 S.3       12 UNK        -0.2240 
     71 C71        33.5854   -3.4364   -4.0952 C.3       12 UNK         0.0194 
     72 H72        25.1470   -7.4254    0.4058 H         1 UNK         0.0906 
     73 H73        24.9043   -7.2568    2.1455 H         1 UNK         0.0906 
     74 H74        23.7162   -6.5946    1.0192 H         1 UNK         0.0906 
     75 H75        26.6492   -5.9741   -0.4205 H         1 UNK         0.3140 
     76 H76        27.4394   -3.5963    1.0512 H         1 UNK         0.1085 
     77 H77        29.2095   -4.8781    0.0770 H         1 UNK         0.0836 
     78 H78        29.1687   -3.3653   -0.7429 H         1 UNK         0.0836 
     79 H79        27.6960   -3.3071   -3.3610 H         1 UNK         0.0731 
     80 H80        28.5319   -4.4012   -4.4318 H         1 UNK         0.0731 
     81 H81        31.1354   -4.6159   -4.1539 H         1 UNK         0.1312 
     82 H82        33.0684   -0.9298   -3.1214 H         1 UNK         0.1406 
     83 H83        28.8437   -1.3576   -2.5760 H         1 UNK         0.1631 
     84 H84        31.8225    0.9448   -2.3282 H         1 UNK         0.0717 
     85 H85        30.7353    0.3118   -1.1205 H         1 UNK         0.0717 
     86 H86        30.4678    3.0775   -4.3343 H         1 UNK         0.0934 
     87 H87        31.1642    1.5244   -4.5965 H         1 UNK         0.0934 
     88 H88        29.9578    1.9635   -6.5419 H         1 UNK         0.0739 
     89 H89        28.5072   -0.0184   -4.9432 H         1 UNK         0.3093 
     90 H90        27.2584   -1.6269   -7.8932 H         1 UNK         0.0818 
     91 H91        29.5450   -2.5176   -7.8315 H         1 UNK         0.0819 
     92 H92        29.5524   -2.5249   -6.0764 H         1 UNK         0.0819 
     93 H93        28.4760   -3.6043   -6.9661 H         1 UNK         0.0819 
     94 H94        27.0940   -2.4381   -5.1859 H         1 UNK         0.3041 
     95 H95        23.9512   -0.7826   -4.6025 H         1 UNK         0.0784 
     96 H96        23.7202   -2.9642   -5.8341 H         1 UNK         0.0793 
     97 H97        24.9440   -3.6754   -4.7885 H         1 UNK         0.0793 
     98 H98        23.4127   -3.1264   -4.1136 H         1 UNK         0.0793 
     99 H99        25.1674   -2.2109   -2.6437 H         1 UNK         0.3024 
    100 H100       27.1051    0.3096   -1.0606 H         1 UNK         0.1171 
    101 H101       25.3207    0.0673    0.6248 H         1 UNK         0.0786 
    102 H102       24.7120    0.9206   -0.7836 H         1 UNK         0.0786 
    103 H103       24.2880   -0.7664   -0.5349 H         1 UNK         0.0786 
    104 H104       27.8024   -1.5799   -0.2301 H         1 UNK         0.2977 
    105 H105       26.8399    1.7444   -4.7995 H         1 UNK         0.3127 
    106 H106       26.0716    4.4567   -5.1686 H         1 UNK         0.0770 
    107 H107       24.3566    1.9249   -4.9442 H         1 UNK         0.0814 
    108 H108       23.7613    3.5725   -4.7844 H         1 UNK         0.0814 
    109 H109       24.8994    2.9360   -3.6072 H         1 UNK         0.0814 
    110 H110       25.5725    1.5615   -7.2495 H         1 UNK         0.2983 
    111 H111       24.2822    3.0360   -9.3848 H         1 UNK         0.0947 
    112 H112       24.5106    0.8637  -10.5948 H         1 UNK         0.0806 
    113 H113       23.8740    0.6089   -8.9772 H         1 UNK         0.0806 
    114 H114       25.5630    0.2475   -9.3271 H         1 UNK         0.0806 
    115 H115       27.5788    2.5251   -8.4944 H         1 UNK         0.3000 
    116 H116       29.5884    2.8713   -9.3391 H         1 UNK         0.0850 
    117 H117       29.9990    4.6579  -10.9903 H         1 UNK         0.0810 
    118 H118       28.8088    5.2032   -9.8192 H         1 UNK         0.0810 
    119 H119       28.2998    4.7054  -11.4328 H         1 UNK         0.0810 
    120 H120       28.4340    0.5488   -9.9206 H         1 UNK         0.3040 
    121 H121       28.5841   -0.0758  -12.8090 H         1 UNK         0.0766 
    122 H122       26.6493   -0.8899  -11.4740 H         1 UNK         0.0812 
    123 H123       27.7342   -1.7648  -10.3926 H         1 UNK         0.0812 
    124 H124       27.5910   -2.2426  -12.0786 H         1 UNK         0.0812 
    125 H125       30.5523   -0.4215   -9.9466 H         1 UNK         0.3205 
    126 H126       32.7434   -1.6063  -11.3641 H         1 UNK         0.0754 
    127 H127       32.9149   -3.7157  -10.0386 H         1 UNK         0.0769 
    128 H128       31.4235   -3.7121  -10.9471 H         1 UNK         0.0769 
    129 H129       31.3888   -3.3645   -9.2251 H         1 UNK         0.0769 
    130 H130       33.3878   -2.6261   -8.3931 H         1 UNK         0.2981 
    131 H131       34.8121   -0.3304   -7.5057 H         1 UNK         0.0541 
    132 H132       31.4615   -1.2464   -6.9166 H         1 UNK         0.3459 
    133 H133       31.1522    0.0017   -5.7352 H         1 UNK         0.3459 
    134 H134       35.2416   -1.6858   -5.4324 H         1 UNK         0.0612 
    135 H135       35.6568   -2.4895   -6.9099 H         1 UNK         0.0612 
    136 H136       33.6553   -4.4363   -3.6648 H         1 UNK         0.0624 
    137 H137       34.4120   -2.8711   -3.6632 H         1 UNK         0.0624 
@<TRIPOS>BOND
     1    1    2 1    
     2    1   72 1    
     3    1   73 1    
     4    1   74 1    
     5    2    3 2    
     6    2    4 am   BACKBONE|DICT|INTERRES
     7    4    5 1    
     8    4   75 1    
     9    5    6 1    
    10    5   35 1    
    11    5   76 1    
    12    6    7 1    
    13    6   77 1    
    14    6   78 1    
    15    7    8 1    
    16    8    9 1    
    17    8   79 1    
    18    8   80 1    
    19    9   10 ar   
    20    9   14 ar   
    21   10   11 ar   
    22   10   81 1    
    23   11   12 ar   
    24   11   71 1    
    25   12   13 ar   
    26   12   82 1    
    27   13   14 ar   
    28   13   15 1    
    29   14   83 1    
    30   15   16 1    
    31   15   84 1    
    32   15   85 1    
    33   16   17 1    
    34   17   18 1    
    35   17   86 1    
    36   17   87 1    
    37   18   19 1    
    38   18   37 1    
    39   18   88 1    
    40   19   20 am   BACKBONE|DICT|INTERRES
    41   19   89 1    
    42   20   21 2    
    43   20   22 1    
    44   22   23 1    
    45   22   24 1    
    46   22   90 1    
    47   23   91 1    
    48   23   92 1    
    49   23   93 1    
    50   24   25 am   BACKBONE|DICT|INTERRES
    51   24   94 1    
    52   25   26 2    
    53   25   27 1    
    54   27   28 1    
    55   27   29 1    
    56   27   95 1    
    57   28   96 1    
    58   28   97 1    
    59   28   98 1    
    60   29   30 am   BACKBONE|DICT|INTERRES
    61   29   99 1    
    62   30   31 2    
    63   30   32 1    
    64   32   33 1    
    65   32   34 1    
    66   32  100 1    
    67   33  101 1    
    68   33  102 1    
    69   33  103 1    
    70   34   35 am   BACKBONE|DICT|INTERRES
    71   34  104 1    
    72   35   36 2    
    73   37   38 2    
    74   37   39 am   BACKBONE|DICT|INTERRES
    75   39   40 1    
    76   39  105 1    
    77   40   41 1    
    78   40   42 1    
    79   40  106 1    
    80   41  107 1    
    81   41  108 1    
    82   41  109 1    
    83   42   43 2    
    84   42   44 am   BACKBONE|DICT|INTERRES
    85   44   45 1    
    86   44  110 1    
    87   45   46 1    
    88   45   47 1    
    89   45  111 1    
    90   46  112 1    
    91   46  113 1    
    92   46  114 1    
    93   47   48 2    
    94   47   49 am   BACKBONE|DICT|INTERRES
    95   49   50 1    
    96   49  115 1    
    97   50   51 1    
    98   50   52 1    
    99   50  116 1    
   100   51  117 1    
   101   51  118 1    
   102   51  119 1    
   103   52   53 2    
   104   52   54 am   BACKBONE|DICT|INTERRES
   105   54   55 1    
   106   54  120 1    
   107   55   56 1    
   108   55   57 1    
   109   55  121 1    
   110   56  122 1    
   111   56  123 1    
   112   56  124 1    
   113   57   58 2    
   114   57   59 am   BACKBONE|DICT|INTERRES
   115   59   60 1    
   116   59  125 1    
   117   60   61 1    
   118   60   62 1    
   119   60  126 1    
   120   61  127 1    
   121   61  128 1    
   122   61  129 1    
   123   62   63 2    
   124   62   64 am   BACKBONE|DICT|INTERRES
   125   64   65 1    
   126   64  130 1    
   127   65   66 1    
   128   65   69 1    
   129   65  131 1    
   130   66   67 am   BACKBONE|DICT|INTERRES
   131   66   68 2    
   132   67  132 1    
   133   67  133 1    
   134   69   70 1    
   135   69  134 1    
   136   69  135 1    
   137   70   71 1    
   138   71  136 1    
   139   71  137 1    
@<TRIPOS>SUBSTRUCTURE
     1 UNK         1 GROUP             0       ****    0 ROOT    
