@<TRIPOS>MOLECULE
3R137
137   139    1
SMALL
USER_CHARGES


@<TRIPOS>ATOM
      1 CA         28.9752   -5.8624   -8.4484 C.3       0 UNK        -0.2020 
      2 C          28.9907   -5.9988   -6.9333 C.2       0 UNK         0.4855 
      3 O          29.8217   -6.7283   -6.3925 O.2       0 UNK        -0.5197 
      4 N          28.0765   -5.3064   -6.2481 N.am      1 UNK        -0.4892 
      5 CA         27.8863   -5.3428   -4.7988 C.3       1 UNK         0.0835 
      6 C6         28.9936   -4.5751   -4.0208 C.3       12 UNK        -0.0855 
      7 S7         29.1463   -5.1334   -2.2910 S.3       12 UNK        -0.2931 
      8 C8         30.7206   -4.3559   -1.8080 C.3       12 UNK         0.0378 
      9 C9         30.6743   -2.8317   -1.8404 C.ar      12 UNK        -0.0802 
     10 C10        31.6807   -2.1188   -2.4990 C.ar      12 UNK        -0.0944 
     11 C11        31.6912   -0.7210   -2.4829 C.ar      12 UNK        -0.0787 
     12 C12        30.6705   -0.0331   -1.8196 C.ar      12 UNK        -0.0862 
     13 C13        29.6453   -0.7332   -1.1725 C.ar      12 UNK        -0.0733 
     14 C14        29.6601   -2.1311   -1.1779 C.ar      12 UNK        -0.0832 
     15 C15        28.5418    0.0117   -0.4305 C.3       12 UNK         0.0240 
     16 S16        26.9990    0.1236   -1.3980 S.3       12 UNK        -0.2522 
     17 C17        27.4848    1.2738   -2.7256 C.3       12 UNK        -0.0967 
     18 CA         27.3003    0.6293   -4.1300 C.3       5 UNK         0.0660 
     19 N          25.9297    0.7434   -4.6459 N.am      5 UNK        -0.4015 
     20 C          25.2931    1.8722   -5.0046 C.2       4 UNK         0.4946 
     21 O          25.8022    2.9916   -4.9291 O.2       4 UNK        -0.5353 
     22 CA         23.8615    1.7709   -5.5665 C.3       4 UNK         0.0277 
     23 CB         23.8229    2.2345   -7.0322 C.3       4 UNK        -0.1981 
     24 N          23.2768    0.4337   -5.4807 N.am      4 UNK        -0.4209 
     25 C          22.7396   -0.1024   -4.3782 C.2       3 UNK         0.4942 
     26 O          22.6484    0.4872   -3.3005 O.2       3 UNK        -0.5208 
     27 CA         22.2332   -1.5540   -4.4858 C.3       3 UNK         0.0250 
     28 CB         22.1206   -2.0815   -5.9360 C.3       3 UNK        -0.1990 
     29 N          23.0428   -2.4740   -3.6797 N.am      3 UNK        -0.4232 
     30 C          24.3727   -2.6452   -3.7375 C.2       2 UNK         0.4993 
     31 O          25.1165   -1.9857   -4.4691 O.2       2 UNK        -0.5286 
     32 CA         24.9755   -3.7193   -2.8069 C.3       2 UNK         0.0209 
     33 CB         23.9933   -4.8622   -2.4611 C.3       2 UNK        -0.1931 
     34 N          26.2321   -4.2770   -3.3220 N.am      2 UNK        -0.4546 
     35 C          26.4443   -4.8803   -4.5009 C.2       1 UNK         0.5154 
     36 O          25.5621   -5.0869   -5.3400 O.2       1 UNK        -0.5181 
     37 C          28.3208    1.1259   -5.1721 C.2       5 UNK         0.5014 
     38 O          28.7205    0.3444   -6.0371 O.2       5 UNK        -0.5248 
     39 N          28.6945    2.4113   -5.0938 N.am      6 UNK        -0.4434 
     40 CA         29.6912    3.0811   -5.9315 C.3       6 UNK         0.0363 
     41 CB         29.7877    4.5588   -5.5213 C.3       6 UNK        -0.1936 
     42 C          29.4364    2.9565   -7.4405 C.2       6 UNK         0.5081 
     43 O          30.3865    2.7398   -8.1919 O.2       6 UNK        -0.5248 
     44 N          28.1666    3.0692   -7.8494 N.am      7 UNK        -0.4718 
     45 CA         27.7430    2.9246   -9.2446 C.3       7 UNK         0.0273 
     46 CB         26.5371    3.8428   -9.5000 C.3       7 UNK        -0.1935 
     47 C          27.4082    1.4716   -9.6281 C.2       7 UNK         0.5018 
     48 O          27.3178    1.1817  -10.8211 O.2       7 UNK        -0.5186 
     49 N          27.2174    0.5902   -8.6355 N.am      8 UNK        -0.4240 
     50 CA         26.8842   -0.8218   -8.8394 C.3       8 UNK         0.0235 
     51 CB         26.0535   -1.3420   -7.6537 C.3       8 UNK        -0.2000 
     52 C          28.1483   -1.6690   -9.0293 C.2       8 UNK         0.4941 
     53 O          28.2229   -2.4455   -9.9814 O.2       8 UNK        -0.5273 
     54 N          29.1194   -1.4966   -8.1238 N.am      9 UNK        -0.4262 
     55 CA         30.3997   -2.2075   -8.1278 C.3       9 UNK         0.0264 
     56 CB         30.8176   -2.4609   -6.6716 C.3       9 UNK        -0.1955 
     57 C          31.5040   -1.4611   -8.8967 C.2       9 UNK         0.5031 
     58 O          32.5974   -2.0086   -9.0424 O.2       9 UNK        -0.5390 
     59 N          31.2151   -0.2325   -9.3545 N.am      10 UNK        -0.4204 
     60 CA         32.1105    0.6985  -10.0578 C.3       10 UNK         0.0237 
     61 CB         32.5944    0.1091  -11.4005 C.3       10 UNK        -0.1985 
     62 C          33.2698    1.2288   -9.1866 C.2       10 UNK         0.4970 
     63 O          34.2508    1.7412   -9.7286 O.2       10 UNK        -0.4914 
     64 N          33.1328    1.1188   -7.8593 N.am      11 UNK        -0.4285 
     65 CA         34.0659    1.6483   -6.8557 C.3       11 UNK         0.1007 
     66 C          33.9287    3.1751   -6.5855 C.2       11 UNK         0.5703 
     67 N          32.9359    3.8661   -7.1333 N.am      11 UNK        -0.7361 
     68 O          34.7581    3.7500   -5.8845 O.2       11 UNK        -0.4986 
     69 C69        34.0482    0.8005   -5.5544 C.3       12 UNK        -0.0947 
     70 S70        32.3890    0.5540   -4.8349 S.3       12 UNK        -0.2240 
     71 C71        32.8288    0.0378   -3.1508 C.3       12 UNK         0.0194 
     72 H72        29.9769   -5.6432   -8.8169 H         1 UNK         0.0906 
     73 H73        28.6417   -6.7936   -8.9053 H         1 UNK         0.0906 
     74 H74        28.3120   -5.0630   -8.7791 H         1 UNK         0.0906 
     75 H75        27.3572   -4.7877   -6.7367 H         1 UNK         0.3140 
     76 H76        27.9234   -6.3936   -4.5022 H         1 UNK         0.1085 
     77 H77        29.9639   -4.7469   -4.4883 H         1 UNK         0.0836 
     78 H78        28.8328   -3.4953   -4.0553 H         1 UNK         0.0836 
     79 H79        31.5123   -4.7365   -2.4554 H         1 UNK         0.0731 
     80 H80        30.9724   -4.6750   -0.7959 H         1 UNK         0.0731 
     81 H81        32.4734   -2.6514   -3.0067 H         1 UNK         0.1312 
     82 H82        30.6849    1.0478   -1.8006 H         1 UNK         0.1406 
     83 H83        28.8821   -2.6756   -0.6601 H         1 UNK         0.1631 
     84 H84        28.8715    1.0146   -0.1544 H         1 UNK         0.0717 
     85 H85        28.3273   -0.5017    0.5079 H         1 UNK         0.0717 
     86 H86        26.9010    2.1893   -2.6212 H         1 UNK         0.0934 
     87 H87        28.5188    1.5723   -2.5554 H         1 UNK         0.0934 
     88 H88        27.4963   -0.4412   -4.0394 H         1 UNK         0.0739 
     89 H89        25.4429   -0.1472   -4.7265 H         1 UNK         0.3093 
     90 H90        23.2420    2.4546   -4.9818 H         1 UNK         0.0818 
     91 H91        24.1513    3.2711   -7.1158 H         1 UNK         0.0819 
     92 H92        24.4700    1.6308   -7.6691 H         1 UNK         0.0819 
     93 H93        22.8122    2.1884   -7.4383 H         1 UNK         0.0819 
     94 H94        23.3156   -0.1368   -6.3123 H         1 UNK         0.3041 
     95 H95        21.2308   -1.5577   -4.0550 H         1 UNK         0.0784 
     96 H96        21.4963   -1.4302   -6.5494 H         1 UNK         0.0793 
     97 H97        23.0928   -2.1742   -6.4218 H         1 UNK         0.0793 
     98 H98        21.6575   -3.0682   -5.9527 H         1 UNK         0.0793 
     99 H99        22.5272   -3.0351   -3.0167 H         1 UNK         0.3024 
    100 H100       25.2306   -3.2013   -1.8808 H         1 UNK         0.1171 
    101 H101       23.1447   -4.5024   -1.8785 H         1 UNK         0.0786 
    102 H102       23.6020   -5.3450   -3.3577 H         1 UNK         0.0786 
    103 H103       24.4808   -5.6299   -1.8599 H         1 UNK         0.0786 
    104 H104       27.0399   -4.1605   -2.7228 H         1 UNK         0.2977 
    105 H105       28.2195    2.9917   -4.4165 H         1 UNK         0.3127 
    106 H106       30.6533    2.6124   -5.7288 H         1 UNK         0.0770 
    107 H107       28.8309    5.0715   -5.6276 H         1 UNK         0.0814 
    108 H108       30.5114    5.0923   -6.1385 H         1 UNK         0.0814 
    109 H109       30.1121    4.6618   -4.4857 H         1 UNK         0.0814 
    110 H110       27.4507    3.2551   -7.1596 H         1 UNK         0.2983 
    111 H111       28.5525    3.2499   -9.9026 H         1 UNK         0.0947 
    112 H112       26.2242    3.7949  -10.5441 H         1 UNK         0.0806 
    113 H113       26.7785    4.8837   -9.2842 H         1 UNK         0.0806 
    114 H114       25.6783    3.5640   -8.8916 H         1 UNK         0.0806 
    115 H115       27.4055    0.8837   -7.6861 H         1 UNK         0.3000 
    116 H116       26.2748   -0.9210   -9.7407 H         1 UNK         0.0850 
    117 H117       25.7765   -2.3870   -7.7990 H         1 UNK         0.0810 
    118 H118       25.1289   -0.7785   -7.5414 H         1 UNK         0.0810 
    119 H119       26.5993   -1.2836   -6.7118 H         1 UNK         0.0810 
    120 H120       28.9687   -0.8398   -7.3568 H         1 UNK         0.3040 
    121 H121       30.2779   -3.1764   -8.6147 H         1 UNK         0.0766 
    122 H122       30.9073   -1.5321   -6.1105 H         1 UNK         0.0812 
    123 H123       31.7758   -2.9786   -6.6129 H         1 UNK         0.0812 
    124 H124       30.0821   -3.0800   -6.1635 H         1 UNK         0.0812 
    125 H125       30.2923    0.1270   -9.1546 H         1 UNK         0.3205 
    126 H126       31.5007    1.5709  -10.2960 H         1 UNK         0.0754 
    127 H127       33.1109    0.8634  -11.9953 H         1 UNK         0.0769 
    128 H128       31.7586   -0.2548  -11.9981 H         1 UNK         0.0769 
    129 H129       33.2896   -0.7182  -11.2552 H         1 UNK         0.0769 
    130 H130       32.2824    0.7184   -7.4931 H         1 UNK         0.2981 
    131 H131       35.0699    1.5373   -7.2694 H         1 UNK         0.0541 
    132 H132       32.8815    4.8575   -6.9667 H         1 UNK         0.3459 
    133 H133       32.2257    3.4034   -7.6888 H         1 UNK         0.3459 
    134 H134       34.7079    1.2349   -4.8009 H         1 UNK         0.0612 
    135 H135       34.4572   -0.1883   -5.7674 H         1 UNK         0.0612 
    136 H136       33.7213   -0.5892   -3.1849 H         1 UNK         0.0624 
    137 H137       33.0932    0.9180   -2.5629 H         1 UNK         0.0624 
@<TRIPOS>BOND
     1    1    2 1    
     2    1   72 1    
     3    1   73 1    
     4    1   74 1    
     5    2    3 2    
     6    2    4 am   BACKBONE|DICT|INTERRES
     7    4    5 1    
     8    4   75 1    
     9    5    6 1    
    10    5   35 1    
    11    5   76 1    
    12    6    7 1    
    13    6   77 1    
    14    6   78 1    
    15    7    8 1    
    16    8    9 1    
    17    8   79 1    
    18    8   80 1    
    19    9   10 ar   
    20    9   14 ar   
    21   10   11 ar   
    22   10   81 1    
    23   11   12 ar   
    24   11   71 1    
    25   12   13 ar   
    26   12   82 1    
    27   13   14 ar   
    28   13   15 1    
    29   14   83 1    
    30   15   16 1    
    31   15   84 1    
    32   15   85 1    
    33   16   17 1    
    34   17   18 1    
    35   17   86 1    
    36   17   87 1    
    37   18   19 1    
    38   18   37 1    
    39   18   88 1    
    40   19   20 am   BACKBONE|DICT|INTERRES
    41   19   89 1    
    42   20   21 2    
    43   20   22 1    
    44   22   23 1    
    45   22   24 1    
    46   22   90 1    
    47   23   91 1    
    48   23   92 1    
    49   23   93 1    
    50   24   25 am   BACKBONE|DICT|INTERRES
    51   24   94 1    
    52   25   26 2    
    53   25   27 1    
    54   27   28 1    
    55   27   29 1    
    56   27   95 1    
    57   28   96 1    
    58   28   97 1    
    59   28   98 1    
    60   29   30 am   BACKBONE|DICT|INTERRES
    61   29   99 1    
    62   30   31 2    
    63   30   32 1    
    64   32   33 1    
    65   32   34 1    
    66   32  100 1    
    67   33  101 1    
    68   33  102 1    
    69   33  103 1    
    70   34   35 am   BACKBONE|DICT|INTERRES
    71   34  104 1    
    72   35   36 2    
    73   37   38 2    
    74   37   39 am   BACKBONE|DICT|INTERRES
    75   39   40 1    
    76   39  105 1    
    77   40   41 1    
    78   40   42 1    
    79   40  106 1    
    80   41  107 1    
    81   41  108 1    
    82   41  109 1    
    83   42   43 2    
    84   42   44 am   BACKBONE|DICT|INTERRES
    85   44   45 1    
    86   44  110 1    
    87   45   46 1    
    88   45   47 1    
    89   45  111 1    
    90   46  112 1    
    91   46  113 1    
    92   46  114 1    
    93   47   48 2    
    94   47   49 am   BACKBONE|DICT|INTERRES
    95   49   50 1    
    96   49  115 1    
    97   50   51 1    
    98   50   52 1    
    99   50  116 1    
   100   51  117 1    
   101   51  118 1    
   102   51  119 1    
   103   52   53 2    
   104   52   54 am   BACKBONE|DICT|INTERRES
   105   54   55 1    
   106   54  120 1    
   107   55   56 1    
   108   55   57 1    
   109   55  121 1    
   110   56  122 1    
   111   56  123 1    
   112   56  124 1    
   113   57   58 2    
   114   57   59 am   BACKBONE|DICT|INTERRES
   115   59   60 1    
   116   59  125 1    
   117   60   61 1    
   118   60   62 1    
   119   60  126 1    
   120   61  127 1    
   121   61  128 1    
   122   61  129 1    
   123   62   63 2    
   124   62   64 am   BACKBONE|DICT|INTERRES
   125   64   65 1    
   126   64  130 1    
   127   65   66 1    
   128   65   69 1    
   129   65  131 1    
   130   66   67 am   BACKBONE|DICT|INTERRES
   131   66   68 2    
   132   67  132 1    
   133   67  133 1    
   134   69   70 1    
   135   69  134 1    
   136   69  135 1    
   137   70   71 1    
   138   71  136 1    
   139   71  137 1    
@<TRIPOS>SUBSTRUCTURE
     1 UNK         1 GROUP             0       ****    0 ROOT    
