@<TRIPOS>MOLECULE
3R137
137   139    1
SMALL
USER_CHARGES


@<TRIPOS>ATOM
      1 CA         28.8217   -5.8853   -1.1530 C.3       0 UNK        -0.2020 
      2 C          27.8781   -4.9389   -0.4260 C.2       0 UNK         0.4855 
      3 O          27.0414   -5.3886    0.3565 O.2       0 UNK        -0.5197 
      4 N          28.0142   -3.6301   -0.6765 N.am      1 UNK        -0.4892 
      5 CA         27.2477   -2.5484   -0.0397 C.3       1 UNK         0.0835 
      6 C6         27.7662   -1.1456   -0.4518 C.3       12 UNK        -0.0855 
      7 S7         29.5731   -0.9286   -0.3123 S.3       12 UNK        -0.2931 
      8 C8         29.9704   -0.1951   -1.9350 C.3       12 UNK         0.0378 
      9 C9         30.4349   -1.2326   -2.9500 C.ar      12 UNK        -0.0802 
     10 C10        31.7438   -1.1746   -3.4351 C.ar      12 UNK        -0.0944 
     11 C11        32.1986   -2.0964   -4.3809 C.ar      12 UNK        -0.0787 
     12 C12        31.3436   -3.1163   -4.8089 C.ar      12 UNK        -0.0862 
     13 C13        30.0373   -3.2036   -4.3158 C.ar      12 UNK        -0.0733 
     14 C14        29.5761   -2.2367   -3.4147 C.ar      12 UNK        -0.0832 
     15 C15        29.1590   -4.3823   -4.7153 C.3       12 UNK         0.0240 
     16 S16        28.3095   -4.1241   -6.3014 S.3       12 UNK        -0.2522 
     17 C17        26.7692   -3.3077   -5.7674 C.3       12 UNK        -0.0967 
     18 CA         26.4014   -2.1020   -6.6622 C.3       5 UNK         0.0660 
     19 N          24.9817   -1.7591   -6.5580 N.am      5 UNK        -0.4015 
     20 C          24.3326   -0.9318   -7.3895 C.2       4 UNK         0.4946 
     21 O          24.8551   -0.3833   -8.3582 O.2       4 UNK        -0.5353 
     22 CA         22.8622   -0.6318   -7.0579 C.3       4 UNK         0.0277 
     23 CB         21.9476   -1.7547   -7.5726 C.3       4 UNK        -0.1981 
     24 N          22.6463   -0.4326   -5.6231 N.am      4 UNK        -0.4209 
     25 C          23.1468    0.5970   -4.9251 C.2       3 UNK         0.4942 
     26 O          23.7834    1.5220   -5.4300 O.2       3 UNK        -0.5208 
     27 CA         22.9380    0.5661   -3.4012 C.3       3 UNK         0.0250 
     28 CB         21.5922    1.2080   -3.0279 C.3       3 UNK        -0.1990 
     29 N          23.0255   -0.7767   -2.8103 N.am      3 UNK        -0.4232 
     30 C          24.1124   -1.5586   -2.8599 C.2       2 UNK         0.4993 
     31 O          25.1359   -1.2721   -3.4879 O.2       2 UNK        -0.5286 
     32 CA         24.0516   -2.9000   -2.1136 C.3       2 UNK         0.0209 
     33 CB         23.7323   -4.0464   -3.0860 C.3       2 UNK        -0.1931 
     34 N          25.3511   -3.1432   -1.4888 N.am      2 UNK        -0.4546 
     35 C          25.7316   -2.5914   -0.3288 C.2       1 UNK         0.5154 
     36 O          24.9492   -2.0639    0.4638 O.2       1 UNK        -0.5181 
     37 C          27.2928   -0.8790   -6.3833 C.2       5 UNK         0.5014 
     38 O          28.2169   -0.6240   -7.1529 O.2       5 UNK        -0.5248 
     39 N          26.9585   -0.1121   -5.3343 N.am      6 UNK        -0.4434 
     40 CA         27.6220    1.1420   -4.9658 C.3       6 UNK         0.0363 
     41 CB         26.9611    1.7145   -3.7007 C.3       6 UNK        -0.1936 
     42 C          27.6197    2.1945   -6.0910 C.2       6 UNK         0.5081 
     43 O          28.5928    2.9367   -6.2239 O.2       6 UNK        -0.5248 
     44 N          26.5381    2.2332   -6.8808 N.am      7 UNK        -0.4718 
     45 CA         26.4169    3.0736   -8.0701 C.3       7 UNK         0.0273 
     46 CB         24.9284    3.2870   -8.3916 C.3       7 UNK        -0.1935 
     47 C          27.1593    2.4890   -9.2851 C.2       7 UNK         0.5018 
     48 O          27.8392    3.2377   -9.9881 O.2       7 UNK        -0.5186 
     49 N          26.9838    1.1844   -9.5393 N.am      8 UNK        -0.4240 
     50 CA         27.4710    0.5071  -10.7436 C.3       8 UNK         0.0235 
     51 CB         26.6740   -0.7901  -10.9579 C.3       8 UNK        -0.2000 
     52 C          28.9780    0.2036  -10.7514 C.2       8 UNK         0.4941 
     53 O          29.5810    0.2506  -11.8255 O.2       8 UNK        -0.5273 
     54 N          29.5538   -0.1558   -9.5955 N.am      9 UNK        -0.4262 
     55 CA         30.9456   -0.6000   -9.4788 C.3       9 UNK         0.0264 
     56 CB         31.1695   -1.2414   -8.1000 C.3       9 UNK        -0.1955 
     57 C          31.9541    0.5354   -9.7259 C.2       9 UNK         0.5031 
     58 O          31.7422    1.6621   -9.2727 O.2       9 UNK        -0.5390 
     59 N          33.0514    0.1993  -10.4162 N.am      10 UNK        -0.4204 
     60 CA         34.1404    1.1156  -10.7758 C.3       10 UNK         0.0237 
     61 CB         34.7142    0.6814  -12.1370 C.3       10 UNK        -0.1985 
     62 C          35.2540    1.1981   -9.7116 C.2       10 UNK         0.4970 
     63 O          36.2564    1.8746   -9.9479 O.2       10 UNK        -0.4914 
     64 N          35.0847    0.4967   -8.5841 N.am      11 UNK        -0.4285 
     65 CA         35.9993    0.4718   -7.4338 C.3       11 UNK         0.1007 
     66 C          36.2132    1.8578   -6.7567 C.2       11 UNK         0.5703 
     67 N          37.3330    2.0407   -6.0692 N.am      11 UNK        -0.7361 
     68 O          35.3723    2.7532   -6.8220 O.2       11 UNK        -0.4986 
     69 C69        35.5740   -0.6184   -6.4122 C.3       12 UNK        -0.0947 
     70 S70        33.8586   -0.4278   -5.8215 S.3       12 UNK        -0.2240 
     71 C71        33.6172   -1.9904   -4.9231 C.3       12 UNK         0.0194 
     72 H72        29.5987   -5.3494   -1.6981 H         1 UNK         0.0906 
     73 H73        29.3100   -6.5487   -0.4397 H         1 UNK         0.0906 
     74 H74        28.2663   -6.4983   -1.8624 H         1 UNK         0.0906 
     75 H75        28.7796   -3.3200   -1.2580 H         1 UNK         0.3140 
     76 H76        27.3719   -2.6584    1.0398 H         1 UNK         0.1085 
     77 H77        27.2993   -0.3782    0.1694 H         1 UNK         0.0836 
     78 H78        27.4566   -0.9196   -1.4738 H         1 UNK         0.0836 
     79 H79        29.1205    0.3574   -2.3316 H         1 UNK         0.0731 
     80 H80        30.7505    0.5511   -1.7764 H         1 UNK         0.0731 
     81 H81        32.4128   -0.3967   -3.0924 H         1 UNK         0.1312 
     82 H82        31.6961   -3.8514   -5.5196 H         1 UNK         0.1406 
     83 H83        28.5570   -2.2775   -3.0609 H         1 UNK         0.1631 
     84 H84        28.4302   -4.6060   -3.9352 H         1 UNK         0.0717 
     85 H85        29.7789   -5.2760   -4.8022 H         1 UNK         0.0717 
     86 H86        25.9852   -4.0641   -5.8247 H         1 UNK         0.0934 
     87 H87        26.8271   -3.0155   -4.7179 H         1 UNK         0.0934 
     88 H88        26.5701   -2.3925   -7.7019 H         1 UNK         0.0739 
     89 H89        24.4927   -2.1078   -5.7478 H         1 UNK         0.3093 
     90 H90        22.5901    0.2929   -7.5719 H         1 UNK         0.0818 
     91 H91        20.8963   -1.5125   -7.4157 H         1 UNK         0.0819 
     92 H92        22.0858   -1.9076   -8.6440 H         1 UNK         0.0819 
     93 H93        22.1507   -2.7059   -7.0790 H         1 UNK         0.0819 
     94 H94        22.1188   -1.1382   -5.1300 H         1 UNK         0.3041 
     95 H95        23.7339    1.1672   -2.9564 H         1 UNK         0.0784 
     96 H96        21.5130    2.2150   -3.4404 H         1 UNK         0.0793 
     97 H97        20.7481    0.6323   -3.4096 H         1 UNK         0.0793 
     98 H98        21.4796    1.2944   -1.9470 H         1 UNK         0.0793 
     99 H99        22.2216   -1.0895   -2.2843 H         1 UNK         0.3024 
    100 H100       23.2754   -2.8582   -1.3457 H         1 UNK         0.1171 
    101 H101       22.7641   -3.8961   -3.5654 H         1 UNK         0.0786 
    102 H102       23.6887   -5.0032   -2.5650 H         1 UNK         0.0786 
    103 H103       24.4791   -4.1320   -3.8751 H         1 UNK         0.0786 
    104 H104       26.0704   -3.5306   -2.0800 H         1 UNK         0.2977 
    105 H105       26.1993   -0.4228   -4.7300 H         1 UNK         0.3127 
    106 H106       28.6625    0.8999   -4.7399 H         1 UNK         0.0770 
    107 H107       25.9470    2.0612   -3.8998 H         1 UNK         0.0814 
    108 H108       27.5259    2.5663   -3.3201 H         1 UNK         0.0814 
    109 H109       26.9039    0.9755   -2.9026 H         1 UNK         0.0814 
    110 H110       25.7613    1.6195   -6.6674 H         1 UNK         0.2983 
    111 H111       26.8554    4.0503   -7.8524 H         1 UNK         0.0947 
    112 H112       24.8056    3.9290   -9.2649 H         1 UNK         0.0806 
    113 H113       24.4094    3.7654   -7.5606 H         1 UNK         0.0806 
    114 H114       24.4191    2.3460   -8.6029 H         1 UNK         0.0806 
    115 H115       26.3717    0.6437   -8.9330 H         1 UNK         0.3000 
    116 H116       27.2711    1.1604  -11.5960 H         1 UNK         0.0850 
    117 H117       26.9970   -1.3048  -11.8639 H         1 UNK         0.0810 
    118 H118       25.6080   -0.5877  -11.0634 H         1 UNK         0.0810 
    119 H119       26.8022   -1.4821  -10.1246 H         1 UNK         0.0810 
    120 H120       28.9969   -0.1792   -8.7416 H         1 UNK         0.3040 
    121 H121       31.1006   -1.3734  -10.2343 H         1 UNK         0.0766 
    122 H122       30.4742   -2.0626   -7.9237 H         1 UNK         0.0812 
    123 H123       31.0377   -0.5186   -7.2931 H         1 UNK         0.0812 
    124 H124       32.1761   -1.6509   -8.0148 H         1 UNK         0.0812 
    125 H125       33.1487   -0.7542  -10.7370 H         1 UNK         0.3205 
    126 H126       33.7357    2.1237  -10.8889 H         1 UNK         0.0754 
    127 H127       35.4833    1.3749  -12.4801 H         1 UNK         0.0769 
    128 H128       33.9401    0.6589  -12.9045 H         1 UNK         0.0769 
    129 H129       35.1678   -0.3094  -12.0873 H         1 UNK         0.0769 
    130 H130       34.2119    0.0105   -8.4511 H         1 UNK         0.2981 
    131 H131       36.9710    0.1760   -7.8339 H         1 UNK         0.0541 
    132 H132       38.0276    1.3135   -5.9985 H         1 UNK         0.3459 
    133 H133       37.4875    2.9264   -5.6134 H         1 UNK         0.3459 
    134 H134       36.2450   -0.6321   -5.5515 H         1 UNK         0.0612 
    135 H135       35.6659   -1.6015   -6.8765 H         1 UNK         0.0612 
    136 H136       33.8399   -2.8245   -5.5903 H         1 UNK         0.0624 
    137 H137       34.3273   -2.0473   -4.0970 H         1 UNK         0.0624 
@<TRIPOS>BOND
     1    1    2 1    
     2    1   72 1    
     3    1   73 1    
     4    1   74 1    
     5    2    3 2    
     6    2    4 am   BACKBONE|DICT|INTERRES
     7    4    5 1    
     8    4   75 1    
     9    5    6 1    
    10    5   35 1    
    11    5   76 1    
    12    6    7 1    
    13    6   77 1    
    14    6   78 1    
    15    7    8 1    
    16    8    9 1    
    17    8   79 1    
    18    8   80 1    
    19    9   10 ar   
    20    9   14 ar   
    21   10   11 ar   
    22   10   81 1    
    23   11   12 ar   
    24   11   71 1    
    25   12   13 ar   
    26   12   82 1    
    27   13   14 ar   
    28   13   15 1    
    29   14   83 1    
    30   15   16 1    
    31   15   84 1    
    32   15   85 1    
    33   16   17 1    
    34   17   18 1    
    35   17   86 1    
    36   17   87 1    
    37   18   19 1    
    38   18   37 1    
    39   18   88 1    
    40   19   20 am   BACKBONE|DICT|INTERRES
    41   19   89 1    
    42   20   21 2    
    43   20   22 1    
    44   22   23 1    
    45   22   24 1    
    46   22   90 1    
    47   23   91 1    
    48   23   92 1    
    49   23   93 1    
    50   24   25 am   BACKBONE|DICT|INTERRES
    51   24   94 1    
    52   25   26 2    
    53   25   27 1    
    54   27   28 1    
    55   27   29 1    
    56   27   95 1    
    57   28   96 1    
    58   28   97 1    
    59   28   98 1    
    60   29   30 am   BACKBONE|DICT|INTERRES
    61   29   99 1    
    62   30   31 2    
    63   30   32 1    
    64   32   33 1    
    65   32   34 1    
    66   32  100 1    
    67   33  101 1    
    68   33  102 1    
    69   33  103 1    
    70   34   35 am   BACKBONE|DICT|INTERRES
    71   34  104 1    
    72   35   36 2    
    73   37   38 2    
    74   37   39 am   BACKBONE|DICT|INTERRES
    75   39   40 1    
    76   39  105 1    
    77   40   41 1    
    78   40   42 1    
    79   40  106 1    
    80   41  107 1    
    81   41  108 1    
    82   41  109 1    
    83   42   43 2    
    84   42   44 am   BACKBONE|DICT|INTERRES
    85   44   45 1    
    86   44  110 1    
    87   45   46 1    
    88   45   47 1    
    89   45  111 1    
    90   46  112 1    
    91   46  113 1    
    92   46  114 1    
    93   47   48 2    
    94   47   49 am   BACKBONE|DICT|INTERRES
    95   49   50 1    
    96   49  115 1    
    97   50   51 1    
    98   50   52 1    
    99   50  116 1    
   100   51  117 1    
   101   51  118 1    
   102   51  119 1    
   103   52   53 2    
   104   52   54 am   BACKBONE|DICT|INTERRES
   105   54   55 1    
   106   54  120 1    
   107   55   56 1    
   108   55   57 1    
   109   55  121 1    
   110   56  122 1    
   111   56  123 1    
   112   56  124 1    
   113   57   58 2    
   114   57   59 am   BACKBONE|DICT|INTERRES
   115   59   60 1    
   116   59  125 1    
   117   60   61 1    
   118   60   62 1    
   119   60  126 1    
   120   61  127 1    
   121   61  128 1    
   122   61  129 1    
   123   62   63 2    
   124   62   64 am   BACKBONE|DICT|INTERRES
   125   64   65 1    
   126   64  130 1    
   127   65   66 1    
   128   65   69 1    
   129   65  131 1    
   130   66   67 am   BACKBONE|DICT|INTERRES
   131   66   68 2    
   132   67  132 1    
   133   67  133 1    
   134   69   70 1    
   135   69  134 1    
   136   69  135 1    
   137   70   71 1    
   138   71  136 1    
   139   71  137 1    
@<TRIPOS>SUBSTRUCTURE
     1 UNK         1 GROUP             0       ****    0 ROOT    
