@<TRIPOS>MOLECULE
3R137
137   139    1
SMALL
USER_CHARGES


@<TRIPOS>ATOM
      1 CA         26.7048    1.0661    1.7074 C.3       0 UNK        -0.2020 
      2 C          27.6712    0.0405    1.1348 C.2       0 UNK         0.4855 
      3 O          28.8717    0.3035    1.0645 O.2       0 UNK        -0.5197 
      4 N          27.1587   -1.1253    0.7292 N.am      1 UNK        -0.4892 
      5 CA         27.9071   -2.2044    0.0917 C.3       1 UNK         0.0835 
      6 C6         28.7936   -2.9784    1.1052 C.3       12 UNK        -0.0855 
      7 S7         29.9336   -4.1953    0.3604 S.3       12 UNK        -0.2931 
      8 C8         31.3381   -3.1559   -0.1634 C.3       12 UNK         0.0378 
      9 C9         31.0791   -2.5083   -1.5164 C.ar      12 UNK        -0.0802 
     10 C10        31.0079   -3.3038   -2.6646 C.ar      12 UNK        -0.0944 
     11 C11        30.7322   -2.7332   -3.9098 C.ar      12 UNK        -0.0787 
     12 C12        30.5358   -1.3538   -4.0024 C.ar      12 UNK        -0.0862 
     13 C13        30.6162   -0.5453   -2.8654 C.ar      12 UNK        -0.0733 
     14 C14        30.8998   -1.1248   -1.6250 C.ar      12 UNK        -0.0832 
     15 C15        30.3749    0.9522   -2.9846 C.3       12 UNK         0.0240 
     16 S16        28.7009    1.4414   -2.4477 S.3       12 UNK        -0.2522 
     17 C17        27.6068    0.3056   -3.3696 C.3       12 UNK        -0.0967 
     18 CA         27.5481    0.5624   -4.8974 C.3       5 UNK         0.0660 
     19 N          27.0986   -0.6319   -5.6279 N.am      5 UNK        -0.4015 
     20 C          27.0916   -0.7602   -6.9664 C.2       4 UNK         0.4946 
     21 O          27.5043    0.1143   -7.7262 O.2       4 UNK        -0.5353 
     22 CA         26.4862   -2.0351   -7.5869 C.3       4 UNK         0.0277 
     23 CB         27.5879   -2.9520   -8.1420 C.3       4 UNK        -0.1981 
     24 N          25.6218   -2.7991   -6.6837 N.am      4 UNK        -0.4209 
     25 C          24.4446   -2.3718   -6.2038 C.2       3 UNK         0.4942 
     26 O          23.9317   -1.2962   -6.5140 O.2       3 UNK        -0.5208 
     27 CA         23.7526   -3.2644   -5.1538 C.3       3 UNK         0.0250 
     28 CB         22.7761   -4.2351   -5.8369 C.3       3 UNK        -0.1990 
     29 N          24.6674   -4.0218   -4.2836 N.am      3 UNK        -0.4232 
     30 C          25.6555   -3.4855   -3.5525 C.2       2 UNK         0.4993 
     31 O          25.9469   -2.2887   -3.5887 O.2       2 UNK        -0.5286 
     32 CA         26.4934   -4.4496   -2.6935 C.3       2 UNK         0.0209 
     33 CB         27.3998   -5.3131   -3.5868 C.3       2 UNK        -0.1931 
     34 N          27.3387   -3.7191   -1.7452 N.am      2 UNK        -0.4546 
     35 C          26.8920   -3.0883   -0.6522 C.2       1 UNK         0.5154 
     36 O          25.7307   -3.1663   -0.2376 O.2       1 UNK        -0.5181 
     37 C          26.7156    1.8177   -5.2367 C.2       5 UNK         0.5014 
     38 O          27.2593    2.9228   -5.2234 O.2       5 UNK        -0.5248 
     39 N          25.4426    1.6303   -5.6219 N.am      6 UNK        -0.4434 
     40 CA         24.5616    2.6819   -6.1417 C.3       6 UNK         0.0363 
     41 CB         23.1474    2.1087   -6.3240 C.3       6 UNK        -0.1936 
     42 C          25.0564    3.3199   -7.4568 C.2       6 UNK         0.5081 
     43 O          24.6471    4.4387   -7.7676 O.2       6 UNK        -0.5248 
     44 N          25.9316    2.6180   -8.1896 N.am      7 UNK        -0.4718 
     45 CA         26.6109    3.0926   -9.3943 C.3       7 UNK         0.0273 
     46 CB         26.1556    2.2343  -10.5875 C.3       7 UNK        -0.1935 
     47 C          28.1428    3.1041   -9.2102 C.2       7 UNK         0.5018 
     48 O          28.8644    3.1263  -10.2089 O.2       7 UNK        -0.5186 
     49 N          28.6056    3.1109   -7.9468 N.am      8 UNK        -0.4240 
     50 CA         29.9854    3.2481   -7.4623 C.3       8 UNK         0.0235 
     51 CB         30.3797    4.7407   -7.4454 C.3       8 UNK        -0.2000 
     52 C          31.0080    2.3617   -8.1988 C.2       8 UNK         0.4941 
     53 O          31.1787    1.1950   -7.8399 O.2       8 UNK        -0.5273 
     54 N          31.6523    2.9326   -9.2282 N.am      9 UNK        -0.4262 
     55 CA         32.6474    2.3061  -10.1038 C.3       9 UNK         0.0264 
     56 CB         33.1658    3.3540  -11.1018 C.3       9 UNK        -0.1955 
     57 C          32.1573    1.0510  -10.8492 C.2       9 UNK         0.5031 
     58 O          32.9944    0.2662  -11.2975 O.2       9 UNK        -0.5390 
     59 N          30.8333    0.8444  -10.9274 N.am      10 UNK        -0.4204 
     60 CA         30.1892   -0.3807  -11.4166 C.3       10 UNK         0.0237 
     61 CB         28.6661   -0.2089  -11.3485 C.3       10 UNK        -0.1985 
     62 C          30.6087   -1.6666  -10.6742 C.2       10 UNK         0.4970 
     63 O          30.4870   -2.7485  -11.2500 O.2       10 UNK        -0.4914 
     64 N          31.1132   -1.5359   -9.4380 N.am      11 UNK        -0.4285 
     65 CA         31.7881   -2.6122   -8.6969 C.3       11 UNK         0.1007 
     66 C          33.1212   -3.1036   -9.3467 C.2       11 UNK         0.5703 
     67 N          33.7645   -2.3385  -10.2224 N.am      11 UNK        -0.7361 
     68 O          33.5717   -4.2125   -9.0703 O.2       11 UNK        -0.4986 
     69 C69        31.9825   -2.2095   -7.2106 C.3       12 UNK        -0.0947 
     70 S70        32.1714   -3.6443   -6.0950 S.3       12 UNK        -0.2240 
     71 C71        30.6219   -3.6120   -5.1458 C.3       12 UNK         0.0194 
     72 H72        26.9893    1.3212    2.7280 H         1 UNK         0.0906 
     73 H73        26.7289    1.9764    1.1087 H         1 UNK         0.0906 
     74 H74        25.6793    0.6970    1.7230 H         1 UNK         0.0906 
     75 H75        26.1626   -1.3073    0.7816 H         1 UNK         0.3140 
     76 H76        28.5365   -1.7410   -0.6659 H         1 UNK         0.1085 
     77 H77        28.1640   -3.5005    1.8280 H         1 UNK         0.0836 
     78 H78        29.3918   -2.2809    1.6929 H         1 UNK         0.0836 
     79 H79        32.2285   -3.7819   -0.2376 H         1 UNK         0.0731 
     80 H80        31.5546   -2.4073    0.6004 H         1 UNK         0.0731 
     81 H81        31.1521   -4.3729   -2.5830 H         1 UNK         0.1312 
     82 H82        30.3061   -0.9060   -4.9580 H         1 UNK         0.1406 
     83 H83        30.9443   -0.5006   -0.7417 H         1 UNK         0.1631 
     84 H84        30.5356    1.2869   -4.0106 H         1 UNK         0.0717 
     85 H85        31.1065    1.4874   -2.3777 H         1 UNK         0.0717 
     86 H86        27.9483   -0.7094   -3.1674 H         1 UNK         0.0934 
     87 H87        26.6083    0.3547   -2.9306 H         1 UNK         0.0934 
     88 H88        28.5603    0.7608   -5.2532 H         1 UNK         0.0739 
     89 H89        26.6998   -1.3704   -5.0521 H         1 UNK         0.3093 
     90 H90        25.8724   -1.7057   -8.4282 H         1 UNK         0.0818 
     91 H91        27.1651   -3.7584   -8.7414 H         1 UNK         0.0819 
     92 H92        28.2716   -2.3988   -8.7872 H         1 UNK         0.0819 
     93 H93        28.1801   -3.4031   -7.3480 H         1 UNK         0.0819 
     94 H94        25.9650   -3.6955   -6.3712 H         1 UNK         0.3041 
     95 H95        23.1749   -2.6010   -4.5068 H         1 UNK         0.0784 
     96 H96        22.0710   -3.6970   -6.4724 H         1 UNK         0.0793 
     97 H97        23.2976   -4.9566   -6.4672 H         1 UNK         0.0793 
     98 H98        22.1888   -4.7898   -5.1048 H         1 UNK         0.0793 
     99 H99        24.4999   -5.0158   -4.2165 H         1 UNK         0.3024 
    100 H100       25.8144   -5.0953   -2.1318 H         1 UNK         0.1171 
    101 H101       28.0397   -5.9655   -2.9920 H         1 UNK         0.0786 
    102 H102       26.8132   -5.9545   -4.2456 H         1 UNK         0.0786 
    103 H103       28.0417   -4.6986   -4.2179 H         1 UNK         0.0786 
    104 H104       28.3064   -3.5964   -2.0075 H         1 UNK         0.2977 
    105 H105       25.0748    0.6875   -5.6404 H         1 UNK         0.3127 
    106 H106       24.5172    3.4756   -5.3930 H         1 UNK         0.0770 
    107 H107       23.1299    1.3089   -7.0657 H         1 UNK         0.0814 
    108 H108       22.4538    2.8803   -6.6613 H         1 UNK         0.0814 
    109 H109       22.7553    1.7081   -5.3891 H         1 UNK         0.0814 
    110 H110       26.2377    1.7078   -7.8580 H         1 UNK         0.2983 
    111 H111       26.3348    4.1280   -9.6037 H         1 UNK         0.0947 
    112 H112       26.6726    2.5157  -11.5056 H         1 UNK         0.0806 
    113 H113       25.0884    2.3584  -10.7713 H         1 UNK         0.0806 
    114 H114       26.3367    1.1747  -10.4109 H         1 UNK         0.0806 
    115 H115       27.9136    3.0594   -7.2076 H         1 UNK         0.3000 
    116 H116       29.9792    2.9009   -6.4277 H         1 UNK         0.0850 
    117 H117       31.4117    4.8748   -7.1174 H         1 UNK         0.0810 
    118 H118       29.7508    5.2987   -6.7513 H         1 UNK         0.0810 
    119 H119       30.2765    5.2083   -8.4252 H         1 UNK         0.0810 
    120 H120       31.3903    3.8790   -9.4638 H         1 UNK         0.3040 
    121 H121       33.4801    1.9928   -9.4710 H         1 UNK         0.0766 
    122 H122       33.6141    4.2052  -10.5890 H         1 UNK         0.0812 
    123 H123       32.3670    3.7286  -11.7434 H         1 UNK         0.0812 
    124 H124       33.9333    2.9300  -11.7512 H         1 UNK         0.0812 
    125 H125       30.2197    1.5663  -10.5612 H         1 UNK         0.3205 
    126 H126       30.4770   -0.5032  -12.4626 H         1 UNK         0.0754 
    127 H127       28.1512   -1.0890  -11.7362 H         1 UNK         0.0769 
    128 H128       28.3384    0.6456  -11.9404 H         1 UNK         0.0769 
    129 H129       28.3324   -0.0607  -10.3210 H         1 UNK         0.0769 
    130 H130       31.1577   -0.6121   -9.0222 H         1 UNK         0.2981 
    131 H131       31.1052   -3.4638   -8.7209 H         1 UNK         0.0541 
    132 H132       33.4056   -1.4301  -10.5017 H         1 UNK         0.3459 
    133 H133       34.6169   -2.6822  -10.6344 H         1 UNK         0.3459 
    134 H134       31.1251   -1.6245   -6.8804 H         1 UNK         0.0612 
    135 H135       32.8460   -1.5522   -7.0932 H         1 UNK         0.0612 
    136 H136       30.3805   -4.6354   -4.8555 H         1 UNK         0.0624 
    137 H137       29.8009   -3.2726   -5.7756 H         1 UNK         0.0624 
@<TRIPOS>BOND
     1    1    2 1    
     2    1   72 1    
     3    1   73 1    
     4    1   74 1    
     5    2    3 2    
     6    2    4 am   BACKBONE|DICT|INTERRES
     7    4    5 1    
     8    4   75 1    
     9    5    6 1    
    10    5   35 1    
    11    5   76 1    
    12    6    7 1    
    13    6   77 1    
    14    6   78 1    
    15    7    8 1    
    16    8    9 1    
    17    8   79 1    
    18    8   80 1    
    19    9   10 ar   
    20    9   14 ar   
    21   10   11 ar   
    22   10   81 1    
    23   11   12 ar   
    24   11   71 1    
    25   12   13 ar   
    26   12   82 1    
    27   13   14 ar   
    28   13   15 1    
    29   14   83 1    
    30   15   16 1    
    31   15   84 1    
    32   15   85 1    
    33   16   17 1    
    34   17   18 1    
    35   17   86 1    
    36   17   87 1    
    37   18   19 1    
    38   18   37 1    
    39   18   88 1    
    40   19   20 am   BACKBONE|DICT|INTERRES
    41   19   89 1    
    42   20   21 2    
    43   20   22 1    
    44   22   23 1    
    45   22   24 1    
    46   22   90 1    
    47   23   91 1    
    48   23   92 1    
    49   23   93 1    
    50   24   25 am   BACKBONE|DICT|INTERRES
    51   24   94 1    
    52   25   26 2    
    53   25   27 1    
    54   27   28 1    
    55   27   29 1    
    56   27   95 1    
    57   28   96 1    
    58   28   97 1    
    59   28   98 1    
    60   29   30 am   BACKBONE|DICT|INTERRES
    61   29   99 1    
    62   30   31 2    
    63   30   32 1    
    64   32   33 1    
    65   32   34 1    
    66   32  100 1    
    67   33  101 1    
    68   33  102 1    
    69   33  103 1    
    70   34   35 am   BACKBONE|DICT|INTERRES
    71   34  104 1    
    72   35   36 2    
    73   37   38 2    
    74   37   39 am   BACKBONE|DICT|INTERRES
    75   39   40 1    
    76   39  105 1    
    77   40   41 1    
    78   40   42 1    
    79   40  106 1    
    80   41  107 1    
    81   41  108 1    
    82   41  109 1    
    83   42   43 2    
    84   42   44 am   BACKBONE|DICT|INTERRES
    85   44   45 1    
    86   44  110 1    
    87   45   46 1    
    88   45   47 1    
    89   45  111 1    
    90   46  112 1    
    91   46  113 1    
    92   46  114 1    
    93   47   48 2    
    94   47   49 am   BACKBONE|DICT|INTERRES
    95   49   50 1    
    96   49  115 1    
    97   50   51 1    
    98   50   52 1    
    99   50  116 1    
   100   51  117 1    
   101   51  118 1    
   102   51  119 1    
   103   52   53 2    
   104   52   54 am   BACKBONE|DICT|INTERRES
   105   54   55 1    
   106   54  120 1    
   107   55   56 1    
   108   55   57 1    
   109   55  121 1    
   110   56  122 1    
   111   56  123 1    
   112   56  124 1    
   113   57   58 2    
   114   57   59 am   BACKBONE|DICT|INTERRES
   115   59   60 1    
   116   59  125 1    
   117   60   61 1    
   118   60   62 1    
   119   60  126 1    
   120   61  127 1    
   121   61  128 1    
   122   61  129 1    
   123   62   63 2    
   124   62   64 am   BACKBONE|DICT|INTERRES
   125   64   65 1    
   126   64  130 1    
   127   65   66 1    
   128   65   69 1    
   129   65  131 1    
   130   66   67 am   BACKBONE|DICT|INTERRES
   131   66   68 2    
   132   67  132 1    
   133   67  133 1    
   134   69   70 1    
   135   69  134 1    
   136   69  135 1    
   137   70   71 1    
   138   71  136 1    
   139   71  137 1    
@<TRIPOS>SUBSTRUCTURE
     1 UNK         1 GROUP             0       ****    0 ROOT    
