@<TRIPOS>MOLECULE
3R137
137   139    1
SMALL
USER_CHARGES


@<TRIPOS>ATOM
      1 CA         24.1101   -6.4516    1.8109 C.3       0 UNK        -0.2020 
      2 C          24.8995   -5.1530    1.7370 C.2       0 UNK         0.4855 
      3 O          24.5918   -4.2071    2.4634 O.2       0 UNK        -0.5197 
      4 N          25.9207   -5.1034    0.8734 N.am      1 UNK        -0.4892 
      5 CA         26.7395   -3.9168    0.6070 C.3       1 UNK         0.0835 
      6 C6         28.1330   -4.2993    0.0365 C.3       12 UNK        -0.0855 
      7 S7         28.1086   -5.4055   -1.4216 S.3       12 UNK        -0.2931 
      8 C8         28.1078   -4.2458   -2.8260 C.3       12 UNK         0.0378 
      9 C9         29.4151   -3.4788   -2.9699 C.ar      12 UNK        -0.0802 
     10 C10        30.4858   -4.0473   -3.6674 C.ar      12 UNK        -0.0944 
     11 C11        31.6585   -3.3175   -3.8823 C.ar      12 UNK        -0.0787 
     12 C12        31.7881   -2.0450   -3.3202 C.ar      12 UNK        -0.0862 
     13 C13        30.7319   -1.4689   -2.6097 C.ar      12 UNK        -0.0733 
     14 C14        29.5408   -2.1827   -2.4569 C.ar      12 UNK        -0.0832 
     15 C15        30.8990   -0.0907   -1.9854 C.3       12 UNK         0.0240 
     16 S16        31.2197    1.2010   -3.2294 S.3       12 UNK        -0.2522 
     17 C17        29.5596    1.8677   -3.5781 C.3       12 UNK        -0.0967 
     18 CA         29.1428    1.6289   -5.0497 C.3       5 UNK         0.0660 
     19 N          28.6605    0.2669   -5.2874 N.am      5 UNK        -0.4015 
     20 C          28.8499   -0.4108   -6.4278 C.2       4 UNK         0.4946 
     21 O          29.6268   -0.0530   -7.3149 O.2       4 UNK        -0.5353 
     22 CA         28.0411   -1.7050   -6.6389 C.3       4 UNK         0.0277 
     23 CB         28.9612   -2.9258   -6.7467 C.3       4 UNK        -0.1981 
     24 N          27.0303   -1.9620   -5.6077 N.am      4 UNK        -0.4209 
     25 C          25.8164   -1.3997   -5.6009 C.2       3 UNK         0.4942 
     26 O          25.4536   -0.5575   -6.4192 O.2       3 UNK        -0.5208 
     27 CA         24.8523   -1.8209   -4.4800 C.3       3 UNK         0.0250 
     28 CB         24.4101   -3.2824   -4.6616 C.3       3 UNK        -0.1990 
     29 N          25.3274   -1.6249   -3.1045 N.am      3 UNK        -0.4232 
     30 C          25.9771   -0.5698   -2.5988 C.2       2 UNK         0.4993 
     31 O          26.4800    0.3195   -3.2848 O.2       2 UNK        -0.5286 
     32 CA         26.0765   -0.4669   -1.0635 C.3       2 UNK         0.0209 
     33 CB         24.7462    0.0400   -0.4747 C.3       2 UNK        -0.1931 
     34 N          26.5453   -1.6675   -0.3478 N.am      2 UNK        -0.4546 
     35 C          25.9941   -2.8898   -0.2769 C.2       1 UNK         0.5154 
     36 O          24.9730   -3.2178   -0.8882 O.2       1 UNK        -0.5181 
     37 C          28.0702    2.6415   -5.4949 C.2       5 UNK         0.5014 
     38 O          28.4270    3.6796   -6.0511 O.2       5 UNK        -0.5248 
     39 N          26.7844    2.3302   -5.2636 N.am      6 UNK        -0.4434 
     40 CA         25.6365    3.0974   -5.7551 C.3       6 UNK         0.0363 
     41 CB         24.3439    2.5794   -5.1041 C.3       6 UNK        -0.1936 
     42 C          25.5488    3.0614   -7.2900 C.2       6 UNK         0.5081 
     43 O          25.4834    4.1151   -7.9245 O.2       6 UNK        -0.5248 
     44 N          25.6348    1.8561   -7.8683 N.am      7 UNK        -0.4718 
     45 CA         25.8597    1.6240   -9.2956 C.3       7 UNK         0.0273 
     46 CB         25.2862    0.2482   -9.6812 C.3       7 UNK        -0.1935 
     47 C          27.3651    1.7402   -9.5921 C.2       7 UNK         0.5018 
     48 O          28.0140    0.7404   -9.9028 O.2       7 UNK        -0.5186 
     49 N          27.8903    2.9662   -9.4530 N.am      8 UNK        -0.4240 
     50 CA         29.3136    3.3298   -9.4120 C.3       8 UNK         0.0235 
     51 CB         29.4289    4.8562   -9.2689 C.3       8 UNK        -0.2000 
     52 C          30.1929    2.8393  -10.5757 C.2       8 UNK         0.4941 
     53 O          31.4114    2.7879  -10.4171 O.2       8 UNK        -0.5273 
     54 N          29.5842    2.4646  -11.7072 N.am      9 UNK        -0.4262 
     55 CA         30.2503    1.8079  -12.8327 C.3       9 UNK         0.0264 
     56 CB         29.2691    1.7240  -14.0126 C.3       9 UNK        -0.1955 
     57 C          30.8136    0.4099  -12.4982 C.2       9 UNK         0.5031 
     58 O          31.7125   -0.0454  -13.2073 O.2       9 UNK        -0.5390 
     59 N          30.2808   -0.2489  -11.4571 N.am      10 UNK        -0.4204 
     60 CA         30.7217   -1.5615  -10.9883 C.3       10 UNK         0.0237 
     61 CB         29.5618   -2.2648  -10.2652 C.3       10 UNK        -0.1985 
     62 C          32.0077   -1.4698  -10.1443 C.2       10 UNK         0.4970 
     63 O          33.0888   -1.6940  -10.6917 O.2       10 UNK        -0.4914 
     64 N          31.8868   -1.1701   -8.8416 N.am      11 UNK        -0.4285 
     65 CA         33.0269   -1.0833   -7.9067 C.3       11 UNK         0.1007 
     66 C          33.6460    0.3391   -7.7886 C.2       11 UNK         0.5703 
     67 N          33.1208    1.3648   -8.4440 N.am      11 UNK        -0.7361 
     68 O          34.6499    0.5153   -7.1011 O.2       11 UNK        -0.4986 
     69 C69        32.6817   -1.6642   -6.5082 C.3       12 UNK        -0.0947 
     70 S70        32.4938   -3.4797   -6.5177 S.3       12 UNK        -0.2240 
     71 C71        32.7675   -3.8819   -4.7580 C.3       12 UNK         0.0194 
     72 H72        23.0677   -6.2716    1.5491 H         1 UNK         0.0906 
     73 H73        24.5042   -7.2079    1.1323 H         1 UNK         0.0906 
     74 H74        24.1429   -6.8542    2.8231 H         1 UNK         0.0906 
     75 H75        26.1127   -5.8941    0.2737 H         1 UNK         0.3140 
     76 H76        26.9111   -3.4201    1.5653 H         1 UNK         0.1085 
     77 H77        28.6848   -4.8303    0.8138 H         1 UNK         0.0836 
     78 H78        28.7382   -3.4168   -0.1665 H         1 UNK         0.0836 
     79 H79        27.2686   -3.5596   -2.7335 H         1 UNK         0.0731 
     80 H80        27.9229   -4.8158   -3.7379 H         1 UNK         0.0731 
     81 H81        30.3849   -5.0366   -4.0932 H         1 UNK         0.1312 
     82 H82        32.7023   -1.4850   -3.4609 H         1 UNK         0.1406 
     83 H83        28.7179   -1.7309   -1.9261 H         1 UNK         0.1631 
     84 H84        31.7497   -0.1261   -1.3034 H         1 UNK         0.0717 
     85 H85        30.0372    0.1793   -1.3736 H         1 UNK         0.0717 
     86 H86        28.8229    1.4590   -2.8859 H         1 UNK         0.0934 
     87 H87        29.6104    2.9364   -3.3581 H         1 UNK         0.0934 
     88 H88        30.0160    1.8164   -5.6793 H         1 UNK         0.0739 
     89 H89        27.9947   -0.0883   -4.6123 H         1 UNK         0.3093 
     90 H90        27.5333   -1.5937   -7.5997 H         1 UNK         0.0818 
     91 H91        29.4892   -3.0962   -5.8158 H         1 UNK         0.0819 
     92 H92        28.4069   -3.8303   -6.9979 H         1 UNK         0.0819 
     93 H93        29.7238   -2.7873   -7.5104 H         1 UNK         0.0819 
     94 H94        27.2655   -2.6295   -4.8901 H         1 UNK         0.3041 
     95 H95        23.9649   -1.1939   -4.5840 H         1 UNK         0.0784 
     96 H96        24.0467   -3.4605   -5.6749 H         1 UNK         0.0793 
     97 H97        25.2265   -3.9815   -4.4787 H         1 UNK         0.0793 
     98 H98        23.5980   -3.5363   -3.9800 H         1 UNK         0.0793 
     99 H99        24.9968   -2.3022   -2.4174 H         1 UNK         0.3024 
    100 H100       26.8252    0.3028   -0.8662 H         1 UNK         0.1171 
    101 H101       24.8388    0.2463    0.5916 H         1 UNK         0.0786 
    102 H102       24.4336    0.9676   -0.9567 H         1 UNK         0.0786 
    103 H103       23.9389   -0.6813   -0.6062 H         1 UNK         0.0786 
    104 H104       27.3818   -1.5156    0.1993 H         1 UNK         0.2977 
    105 H105       26.5747    1.4990   -4.7161 H         1 UNK         0.3127 
    106 H106       25.7750    4.1375   -5.4532 H         1 UNK         0.0770 
    107 H107       24.1540    1.5340   -5.3474 H         1 UNK         0.0814 
    108 H108       23.4811    3.1541   -5.4422 H         1 UNK         0.0814 
    109 H109       24.3866    2.6651   -4.0182 H         1 UNK         0.0814 
    110 H110       25.6659    1.0292   -7.2726 H         1 UNK         0.2983 
    111 H111       25.3368    2.3836   -9.8811 H         1 UNK         0.0947 
    112 H112       25.4194    0.0554  -10.7462 H         1 UNK         0.0806 
    113 H113       24.2184    0.1912   -9.4700 H         1 UNK         0.0806 
    114 H114       25.7763   -0.5619   -9.1402 H         1 UNK         0.0806 
    115 H115       27.2478    3.6942   -9.1632 H         1 UNK         0.3000 
    116 H116       29.7199    2.8710   -8.5081 H         1 UNK         0.0850 
    117 H117       30.4719    5.1659   -9.1908 H         1 UNK         0.0810 
    118 H118       28.9227    5.2097   -8.3704 H         1 UNK         0.0810 
    119 H119       28.9970    5.3746  -10.1255 H         1 UNK         0.0810 
    120 H120       28.5779    2.5288  -11.7452 H         1 UNK         0.3040 
    121 H121       31.0930    2.4338  -13.1318 H         1 UNK         0.0766 
    122 H122       28.9249    2.7131  -14.3150 H         1 UNK         0.0812 
    123 H123       28.3935    1.1226  -13.7670 H         1 UNK         0.0812 
    124 H124       29.7436    1.2680  -14.8823 H         1 UNK         0.0812 
    125 H125       29.5316    0.1924  -10.9259 H         1 UNK         0.3205 
    126 H126       30.9630   -2.1734  -11.8602 H         1 UNK         0.0754 
    127 H127       29.8815   -3.2180   -9.8432 H         1 UNK         0.0769 
    128 H128       28.7443   -2.4761  -10.9545 H         1 UNK         0.0769 
    129 H129       29.1557   -1.6538   -9.4609 H         1 UNK         0.0769 
    130 H130       30.9818   -0.9162   -8.4543 H         1 UNK         0.2981 
    131 H131       33.8413   -1.6957   -8.2982 H         1 UNK         0.0541 
    132 H132       32.3171    1.2588   -9.0457 H         1 UNK         0.3459 
    133 H133       33.5511    2.2707   -8.3562 H         1 UNK         0.3459 
    134 H134       33.4701   -1.4308   -5.7908 H         1 UNK         0.0612 
    135 H135       31.7707   -1.2111   -6.1158 H         1 UNK         0.0612 
    136 H136       33.7397   -3.5010   -4.4418 H         1 UNK         0.0624 
    137 H137       32.8122   -4.9662   -4.6464 H         1 UNK         0.0624 
@<TRIPOS>BOND
     1    1    2 1    
     2    1   72 1    
     3    1   73 1    
     4    1   74 1    
     5    2    3 2    
     6    2    4 am   BACKBONE|DICT|INTERRES
     7    4    5 1    
     8    4   75 1    
     9    5    6 1    
    10    5   35 1    
    11    5   76 1    
    12    6    7 1    
    13    6   77 1    
    14    6   78 1    
    15    7    8 1    
    16    8    9 1    
    17    8   79 1    
    18    8   80 1    
    19    9   10 ar   
    20    9   14 ar   
    21   10   11 ar   
    22   10   81 1    
    23   11   12 ar   
    24   11   71 1    
    25   12   13 ar   
    26   12   82 1    
    27   13   14 ar   
    28   13   15 1    
    29   14   83 1    
    30   15   16 1    
    31   15   84 1    
    32   15   85 1    
    33   16   17 1    
    34   17   18 1    
    35   17   86 1    
    36   17   87 1    
    37   18   19 1    
    38   18   37 1    
    39   18   88 1    
    40   19   20 am   BACKBONE|DICT|INTERRES
    41   19   89 1    
    42   20   21 2    
    43   20   22 1    
    44   22   23 1    
    45   22   24 1    
    46   22   90 1    
    47   23   91 1    
    48   23   92 1    
    49   23   93 1    
    50   24   25 am   BACKBONE|DICT|INTERRES
    51   24   94 1    
    52   25   26 2    
    53   25   27 1    
    54   27   28 1    
    55   27   29 1    
    56   27   95 1    
    57   28   96 1    
    58   28   97 1    
    59   28   98 1    
    60   29   30 am   BACKBONE|DICT|INTERRES
    61   29   99 1    
    62   30   31 2    
    63   30   32 1    
    64   32   33 1    
    65   32   34 1    
    66   32  100 1    
    67   33  101 1    
    68   33  102 1    
    69   33  103 1    
    70   34   35 am   BACKBONE|DICT|INTERRES
    71   34  104 1    
    72   35   36 2    
    73   37   38 2    
    74   37   39 am   BACKBONE|DICT|INTERRES
    75   39   40 1    
    76   39  105 1    
    77   40   41 1    
    78   40   42 1    
    79   40  106 1    
    80   41  107 1    
    81   41  108 1    
    82   41  109 1    
    83   42   43 2    
    84   42   44 am   BACKBONE|DICT|INTERRES
    85   44   45 1    
    86   44  110 1    
    87   45   46 1    
    88   45   47 1    
    89   45  111 1    
    90   46  112 1    
    91   46  113 1    
    92   46  114 1    
    93   47   48 2    
    94   47   49 am   BACKBONE|DICT|INTERRES
    95   49   50 1    
    96   49  115 1    
    97   50   51 1    
    98   50   52 1    
    99   50  116 1    
   100   51  117 1    
   101   51  118 1    
   102   51  119 1    
   103   52   53 2    
   104   52   54 am   BACKBONE|DICT|INTERRES
   105   54   55 1    
   106   54  120 1    
   107   55   56 1    
   108   55   57 1    
   109   55  121 1    
   110   56  122 1    
   111   56  123 1    
   112   56  124 1    
   113   57   58 2    
   114   57   59 am   BACKBONE|DICT|INTERRES
   115   59   60 1    
   116   59  125 1    
   117   60   61 1    
   118   60   62 1    
   119   60  126 1    
   120   61  127 1    
   121   61  128 1    
   122   61  129 1    
   123   62   63 2    
   124   62   64 am   BACKBONE|DICT|INTERRES
   125   64   65 1    
   126   64  130 1    
   127   65   66 1    
   128   65   69 1    
   129   65  131 1    
   130   66   67 am   BACKBONE|DICT|INTERRES
   131   66   68 2    
   132   67  132 1    
   133   67  133 1    
   134   69   70 1    
   135   69  134 1    
   136   69  135 1    
   137   70   71 1    
   138   71  136 1    
   139   71  137 1    
@<TRIPOS>SUBSTRUCTURE
     1 UNK         1 GROUP             0       ****    0 ROOT    
