@<TRIPOS>MOLECULE
3R137
137   139    1
SMALL
USER_CHARGES


@<TRIPOS>ATOM
      1 CA         24.1759   -5.7855    1.1388 C.3       0 UNK        -0.2020 
      2 C          25.3406   -4.8176    0.9940 C.2       0 UNK         0.4855 
      3 O          25.2397   -3.6698    1.4281 O.2       0 UNK        -0.5197 
      4 N          26.4476   -5.2707    0.3911 N.am      1 UNK        -0.4892 
      5 CA         27.6230   -4.4503    0.0824 C.3       1 UNK         0.0835 
      6 C6         28.8408   -5.3345   -0.2835 C.3       12 UNK        -0.0855 
      7 S7         30.4311   -4.4730   -0.0421 S.3       12 UNK        -0.2931 
      8 C8         31.2329   -4.6779   -1.6660 C.3       12 UNK         0.0378 
      9 C9         30.8072   -3.6076   -2.6616 C.ar      12 UNK        -0.0802 
     10 C10        31.3704   -2.3293   -2.5879 C.ar      12 UNK        -0.0944 
     11 C11        31.0219   -1.3374   -3.5094 C.ar      12 UNK        -0.0787 
     12 C12        30.0920   -1.6408   -4.5104 C.ar      12 UNK        -0.0862 
     13 C13        29.5307   -2.9169   -4.6065 C.ar      12 UNK        -0.0733 
     14 C14        29.8861   -3.8969   -3.6743 C.ar      12 UNK        -0.0832 
     15 C15        28.5618   -3.2307   -5.7364 C.3       12 UNK         0.0240 
     16 S16        26.8510   -2.8081   -5.2888 S.3       12 UNK        -0.2522 
     17 C17        26.0721   -2.6905   -6.9401 C.3       12 UNK        -0.0967 
     18 CA         25.7498   -1.2351   -7.3656 C.3       5 UNK         0.0660 
     19 N          24.8490   -0.5875   -6.4053 N.am      5 UNK        -0.4015 
     20 C          24.3291    0.6449   -6.4682 C.2       4 UNK         0.4946 
     21 O          24.5607    1.4341   -7.3857 O.2       4 UNK        -0.5353 
     22 CA         23.4401    1.1063   -5.2945 C.3       4 UNK         0.0277 
     23 CB         21.9586    1.1634   -5.7165 C.3       4 UNK        -0.1981 
     24 N          23.6099    0.3572   -4.0350 N.am      4 UNK        -0.4209 
     25 C          23.2978   -0.9184   -3.7624 C.2       3 UNK         0.4942 
     26 O          22.8457   -1.7049   -4.5952 O.2       3 UNK        -0.5208 
     27 CA         23.6192   -1.4073   -2.3401 C.3       3 UNK         0.0250 
     28 CB         22.9056   -2.7269   -1.9921 C.3       3 UNK        -0.1990 
     29 N          25.0583   -1.5991   -2.1725 N.am      3 UNK        -0.4232 
     30 C          25.9655   -0.6368   -1.9766 C.2       2 UNK         0.4993 
     31 O          25.6685    0.5589   -1.9194 O.2       2 UNK        -0.5286 
     32 CA         27.4371   -1.0808   -1.8168 C.3       2 UNK         0.0209 
     33 CB         28.3538    0.0853   -1.4040 C.3       2 UNK        -0.1931 
     34 N          27.6277   -2.1775   -0.8594 N.am      2 UNK        -0.4546 
     35 C          27.2852   -3.4588   -1.0472 C.2       1 UNK         0.5154 
     36 O          26.7117   -3.8752   -2.0564 O.2       1 UNK        -0.5181 
     37 C          27.0406   -0.4435   -7.6639 C.2       5 UNK         0.5014 
     38 O          27.6011   -0.6032   -8.7482 O.2       5 UNK        -0.5248 
     39 N          27.4764    0.4047   -6.7200 N.am      6 UNK        -0.4434 
     40 CA         28.6417    1.2887   -6.8074 C.3       6 UNK         0.0363 
     41 CB         28.7041    2.1558   -5.5403 C.3       6 UNK        -0.1936 
     42 C          28.6762    2.1752   -8.0622 C.2       6 UNK         0.5081 
     43 O          29.7561    2.3910   -8.6126 O.2       6 UNK        -0.5248 
     44 N          27.4986    2.6261   -8.5175 N.am      7 UNK        -0.4718 
     45 CA         27.3275    3.4224   -9.7353 C.3       7 UNK         0.0273 
     46 CB         25.8848    3.9495   -9.7907 C.3       7 UNK        -0.1935 
     47 C          27.6727    2.6605  -11.0288 C.2       7 UNK         0.5018 
     48 O          28.0704    3.2950  -12.0065 O.2       7 UNK        -0.5186 
     49 N          27.5192    1.3296  -11.0136 N.am      8 UNK        -0.4240 
     50 CA         27.8800    0.4401  -12.1172 C.3       8 UNK         0.0235 
     51 CB         26.8409   -0.6889  -12.2240 C.3       8 UNK        -0.2000 
     52 C          29.2888   -0.1389  -11.9230 C.2       8 UNK         0.4941 
     53 O          30.0463   -0.2175  -12.8906 O.2       8 UNK        -0.5273 
     54 N          29.6102   -0.5426  -10.6854 N.am      9 UNK        -0.4262 
     55 CA         30.8752   -1.1771  -10.3120 C.3       9 UNK         0.0264 
     56 CB         30.7405   -1.7963   -8.9105 C.3       9 UNK        -0.1955 
     57 C          32.0888   -0.2356  -10.3646 C.2       9 UNK         0.5031 
     58 O          33.1865   -0.7095  -10.6611 O.2       9 UNK        -0.5390 
     59 N          31.8809    1.0567  -10.0592 N.am      10 UNK        -0.4204 
     60 CA         32.9020    2.1078   -9.9422 C.3       10 UNK         0.0237 
     61 CB         33.5168    2.4383  -11.3192 C.3       10 UNK        -0.1985 
     62 C          33.9555    1.7737   -8.8659 C.2       10 UNK         0.4970 
     63 O          35.1575    1.9045   -9.1046 O.2       10 UNK        -0.4914 
     64 N          33.4682    1.3193   -7.7048 N.am      11 UNK        -0.4285 
     65 CA         34.2626    0.8649   -6.5528 C.3       11 UNK         0.1007 
     66 C          35.0567    1.9731   -5.7978 C.2       11 UNK         0.5703 
     67 N          34.8102    3.2551   -6.0414 N.am      11 UNK        -0.7361 
     68 O          35.9226    1.6598   -4.9841 O.2       11 UNK        -0.4986 
     69 C69        33.3978    0.0041   -5.5920 C.3       12 UNK        -0.0947 
     70 S70        31.9447    0.9055   -4.9560 S.3       12 UNK        -0.2240 
     71 C71        31.6289    0.0592   -3.3731 C.3       12 UNK         0.0194 
     72 H72        24.3992   -6.7612    0.7079 H         1 UNK         0.0906 
     73 H73        23.9343   -5.9271    2.1918 H         1 UNK         0.0906 
     74 H74        23.2941   -5.3877    0.6373 H         1 UNK         0.0906 
     75 H75        26.4605   -6.2113    0.0227 H         1 UNK         0.3140 
     76 H76        27.8643   -3.8857    0.9863 H         1 UNK         0.1085 
     77 H77        28.8681   -6.2126    0.3639 H         1 UNK         0.0836 
     78 H78        28.7580   -5.7228   -1.3007 H         1 UNK         0.0836 
     79 H79        32.3135   -4.6209   -1.5261 H         1 UNK         0.0731 
     80 H80        31.0373   -5.6776   -2.0571 H         1 UNK         0.0731 
     81 H81        32.0809   -2.1074   -1.8032 H         1 UNK         0.1312 
     82 H82        29.7999   -0.8845   -5.2216 H         1 UNK         0.1406 
     83 H83        29.4492   -4.8839   -3.7425 H         1 UNK         0.1631 
     84 H84        28.6138   -4.2873   -6.0034 H         1 UNK         0.0717 
     85 H85        28.8563   -2.6742   -6.6268 H         1 UNK         0.0717 
     86 H86        26.6956   -3.1847   -7.6883 H         1 UNK         0.0934 
     87 H87        25.1486   -3.2711   -6.9101 H         1 UNK         0.0934 
     88 H88        25.2027   -1.2811   -8.3093 H         1 UNK         0.0739 
     89 H89        24.5318   -1.1738   -5.6422 H         1 UNK         0.3093 
     90 H90        23.7535    2.1268   -5.0684 H         1 UNK         0.0818 
     91 H91        21.3326    1.5582   -4.9163 H         1 UNK         0.0819 
     92 H92        21.8259    1.8146   -6.5817 H         1 UNK         0.0819 
     93 H93        21.5732    0.1812   -5.9914 H         1 UNK         0.0819 
     94 H94        24.0830    0.8648   -3.2932 H         1 UNK         0.3041 
     95 H95        23.2762   -0.6452   -1.6368 H         1 UNK         0.0784 
     96 H96        21.8257   -2.6310   -2.1115 H         1 UNK         0.0793 
     97 H97        23.2350   -3.5466   -2.6323 H         1 UNK         0.0793 
     98 H98        23.0937   -3.0162   -0.9577 H         1 UNK         0.0793 
     99 H99        25.4096   -2.5517   -2.2469 H         1 UNK         0.3024 
    100 H100       27.7667   -1.4335   -2.7953 H         1 UNK         0.1171 
    101 H101       29.3831   -0.2473   -1.2749 H         1 UNK         0.0786 
    102 H102       28.3569    0.8687   -2.1629 H         1 UNK         0.0786 
    103 H103       28.0315    0.5386   -0.4658 H         1 UNK         0.0786 
    104 H104       28.0702   -1.9257    0.0126 H         1 UNK         0.2977 
    105 H105       26.9408    0.4552   -5.8667 H         1 UNK         0.3127 
    106 H106       29.5307    0.6597   -6.8432 H         1 UNK         0.0770 
    107 H107       27.8113    2.7719   -5.4266 H         1 UNK         0.0814 
    108 H108       29.5618    2.8294   -5.5697 H         1 UNK         0.0814 
    109 H109       28.8077    1.5441   -4.6439 H         1 UNK         0.0814 
    110 H110       26.6553    2.3671   -8.0193 H         1 UNK         0.2983 
    111 H111       28.0044    4.2775   -9.6734 H         1 UNK         0.0947 
    112 H112       25.7254    4.5625  -10.6790 H         1 UNK         0.0806 
    113 H113       25.6555    4.5703   -8.9245 H         1 UNK         0.0806 
    114 H114       25.1592    3.1352   -9.8202 H         1 UNK         0.0806 
    115 H115       27.2366    0.8851  -10.1479 H         1 UNK         0.3000 
    116 H116       27.8716    0.9930  -13.0592 H         1 UNK         0.0850 
    117 H117       27.0822   -1.3633  -13.0467 H         1 UNK         0.0810 
    118 H118       25.8439   -0.2909  -12.4136 H         1 UNK         0.0810 
    119 H119       26.7938   -1.2884  -11.3140 H         1 UNK         0.0810 
    120 H120       28.8978   -0.4918   -9.9581 H         1 UNK         0.3040 
    121 H121       31.0602   -1.9865  -11.0216 H         1 UNK         0.0766 
    122 H122       30.5306   -1.0421   -8.1525 H         1 UNK         0.0812 
    123 H123       31.6596   -2.3055   -8.6169 H         1 UNK         0.0812 
    124 H124       29.9384   -2.5339   -8.8811 H         1 UNK         0.0812 
    125 H125       30.9455    1.3432   -9.7810 H         1 UNK         0.3205 
    126 H126       32.3819    3.0011   -9.5928 H         1 UNK         0.0754 
    127 H127       34.1862    3.2967  -11.2516 H         1 UNK         0.0769 
    128 H128       32.7444    2.6862  -12.0473 H         1 UNK         0.0769 
    129 H129       34.0967    1.6050  -11.7170 H         1 UNK         0.0769 
    130 H130       32.4675    1.2744   -7.5841 H         1 UNK         0.2981 
    131 H131       35.0282    0.2008   -6.9582 H         1 UNK         0.0541 
    132 H132       34.1003    3.5207   -6.7038 H         1 UNK         0.3459 
    133 H133       35.3349    3.9612   -5.5502 H         1 UNK         0.3459 
    134 H134       33.9974   -0.3624   -4.7567 H         1 UNK         0.0612 
    135 H135       33.0386   -0.8852   -6.1123 H         1 UNK         0.0612 
    136 H136       32.5599    0.0212   -2.8054 H         1 UNK         0.0624 
    137 H137       30.9435    0.6789   -2.7958 H         1 UNK         0.0624 
@<TRIPOS>BOND
     1    1    2 1    
     2    1   72 1    
     3    1   73 1    
     4    1   74 1    
     5    2    3 2    
     6    2    4 am   BACKBONE|DICT|INTERRES
     7    4    5 1    
     8    4   75 1    
     9    5    6 1    
    10    5   35 1    
    11    5   76 1    
    12    6    7 1    
    13    6   77 1    
    14    6   78 1    
    15    7    8 1    
    16    8    9 1    
    17    8   79 1    
    18    8   80 1    
    19    9   10 ar   
    20    9   14 ar   
    21   10   11 ar   
    22   10   81 1    
    23   11   12 ar   
    24   11   71 1    
    25   12   13 ar   
    26   12   82 1    
    27   13   14 ar   
    28   13   15 1    
    29   14   83 1    
    30   15   16 1    
    31   15   84 1    
    32   15   85 1    
    33   16   17 1    
    34   17   18 1    
    35   17   86 1    
    36   17   87 1    
    37   18   19 1    
    38   18   37 1    
    39   18   88 1    
    40   19   20 am   BACKBONE|DICT|INTERRES
    41   19   89 1    
    42   20   21 2    
    43   20   22 1    
    44   22   23 1    
    45   22   24 1    
    46   22   90 1    
    47   23   91 1    
    48   23   92 1    
    49   23   93 1    
    50   24   25 am   BACKBONE|DICT|INTERRES
    51   24   94 1    
    52   25   26 2    
    53   25   27 1    
    54   27   28 1    
    55   27   29 1    
    56   27   95 1    
    57   28   96 1    
    58   28   97 1    
    59   28   98 1    
    60   29   30 am   BACKBONE|DICT|INTERRES
    61   29   99 1    
    62   30   31 2    
    63   30   32 1    
    64   32   33 1    
    65   32   34 1    
    66   32  100 1    
    67   33  101 1    
    68   33  102 1    
    69   33  103 1    
    70   34   35 am   BACKBONE|DICT|INTERRES
    71   34  104 1    
    72   35   36 2    
    73   37   38 2    
    74   37   39 am   BACKBONE|DICT|INTERRES
    75   39   40 1    
    76   39  105 1    
    77   40   41 1    
    78   40   42 1    
    79   40  106 1    
    80   41  107 1    
    81   41  108 1    
    82   41  109 1    
    83   42   43 2    
    84   42   44 am   BACKBONE|DICT|INTERRES
    85   44   45 1    
    86   44  110 1    
    87   45   46 1    
    88   45   47 1    
    89   45  111 1    
    90   46  112 1    
    91   46  113 1    
    92   46  114 1    
    93   47   48 2    
    94   47   49 am   BACKBONE|DICT|INTERRES
    95   49   50 1    
    96   49  115 1    
    97   50   51 1    
    98   50   52 1    
    99   50  116 1    
   100   51  117 1    
   101   51  118 1    
   102   51  119 1    
   103   52   53 2    
   104   52   54 am   BACKBONE|DICT|INTERRES
   105   54   55 1    
   106   54  120 1    
   107   55   56 1    
   108   55   57 1    
   109   55  121 1    
   110   56  122 1    
   111   56  123 1    
   112   56  124 1    
   113   57   58 2    
   114   57   59 am   BACKBONE|DICT|INTERRES
   115   59   60 1    
   116   59  125 1    
   117   60   61 1    
   118   60   62 1    
   119   60  126 1    
   120   61  127 1    
   121   61  128 1    
   122   61  129 1    
   123   62   63 2    
   124   62   64 am   BACKBONE|DICT|INTERRES
   125   64   65 1    
   126   64  130 1    
   127   65   66 1    
   128   65   69 1    
   129   65  131 1    
   130   66   67 am   BACKBONE|DICT|INTERRES
   131   66   68 2    
   132   67  132 1    
   133   67  133 1    
   134   69   70 1    
   135   69  134 1    
   136   69  135 1    
   137   70   71 1    
   138   71  136 1    
   139   71  137 1    
@<TRIPOS>SUBSTRUCTURE
     1 UNK         1 GROUP             0       ****    0 ROOT    
