@<TRIPOS>MOLECULE
3R137
137   139    1
SMALL
USER_CHARGES


@<TRIPOS>ATOM
      1 CA         25.2443   -6.4211   -3.3772 C.3       0 UNK        -0.2020 
      2 C          25.7148   -5.3645   -2.3897 C.2       0 UNK         0.4855 
      3 O          24.8879   -4.7373   -1.7270 O.2       0 UNK        -0.5197 
      4 N          27.0348   -5.1500   -2.2975 N.am      1 UNK        -0.4892 
      5 CA         27.6813   -4.1627   -1.4244 C.3       1 UNK         0.0835 
      6 C6         29.2232   -4.2701   -1.5104 C.3       12 UNK        -0.0855 
      7 S7         30.0470   -3.4566   -0.1017 S.3       12 UNK        -0.2931 
      8 C8         31.6898   -3.0914   -0.8034 C.3       12 UNK         0.0378 
      9 C9         31.6518   -2.0464   -1.9136 C.ar      12 UNK        -0.0802 
     10 C10        32.2209   -2.3249   -3.1601 C.ar      12 UNK        -0.0944 
     11 C11        32.2297   -1.3588   -4.1709 C.ar      12 UNK        -0.0787 
     12 C12        31.6619   -0.1042   -3.9281 C.ar      12 UNK        -0.0862 
     13 C13        31.0839    0.1881   -2.6872 C.ar      12 UNK        -0.0733 
     14 C14        31.0876   -0.7873   -1.6849 C.ar      12 UNK        -0.0832 
     15 C15        30.4963    1.5654   -2.3928 C.3       12 UNK         0.0240 
     16 S16        29.4473    2.2305   -3.7276 S.3       12 UNK        -0.2522 
     17 C17        28.0531    1.0512   -3.7593 C.3       12 UNK        -0.0967 
     18 CA         27.6747    0.6202   -5.2022 C.3       5 UNK         0.0660 
     19 N          27.1341   -0.7448   -5.2270 N.am      5 UNK        -0.4015 
     20 C          26.8534   -1.4897   -6.3067 C.2       4 UNK         0.4946 
     21 O          27.0551   -1.1271   -7.4674 O.2       4 UNK        -0.5353 
     22 CA         26.1613   -2.8383   -6.0466 C.3       4 UNK         0.0277 
     23 CB         27.1855   -3.9574   -5.7946 C.3       4 UNK        -0.1981 
     24 N          25.2294   -2.7554   -4.9181 N.am      4 UNK        -0.4209 
     25 C          24.0477   -2.1215   -4.9579 C.2       3 UNK         0.4942 
     26 O          23.5867   -1.6047   -5.9748 O.2       3 UNK        -0.5208 
     27 CA         23.2625   -2.0156   -3.6396 C.3       3 UNK         0.0250 
     28 CB         22.3313   -3.2253   -3.4619 C.3       3 UNK        -0.1990 
     29 N          24.1444   -1.8870   -2.4757 N.am      3 UNK        -0.4232 
     30 C          24.8014   -0.7588   -2.1616 C.2       2 UNK         0.4993 
     31 O          24.6732    0.2985   -2.7786 O.2       2 UNK        -0.5286 
     32 CA         25.8002   -0.8177   -0.9893 C.3       2 UNK         0.0209 
     33 CB         25.1139   -0.4075    0.3231 C.3       2 UNK        -0.1931 
     34 N          26.4423   -2.1250   -0.8149 N.am      2 UNK        -0.4546 
     35 C          27.1844   -2.7385   -1.7466 C.2       1 UNK         0.5154 
     36 O          27.4196   -2.2522   -2.8534 O.2       1 UNK        -0.5181 
     37 C          26.7823    1.6783   -5.9019 C.2       5 UNK         0.5014 
     38 O          27.2151    2.8199   -6.0595 O.2       5 UNK        -0.5248 
     39 N          25.5854    1.3032   -6.3806 N.am      6 UNK        -0.4434 
     40 CA         24.7759    2.0983   -7.3109 C.3       6 UNK         0.0363 
     41 CB         23.4465    1.3747   -7.5726 C.3       6 UNK        -0.1936 
     42 C          25.4991    2.3987   -8.6420 C.2       6 UNK         0.5081 
     43 O          25.2115    3.4216   -9.2632 O.2       6 UNK        -0.5248 
     44 N          26.4496    1.5346   -9.0310 N.am      7 UNK        -0.4718 
     45 CA         27.3663    1.7380  -10.1573 C.3       7 UNK         0.0273 
     46 CB         27.5774    0.3917  -10.8696 C.3       7 UNK        -0.1935 
     47 C          28.7029    2.3936   -9.7371 C.2       7 UNK         0.5018 
     48 O          29.6481    2.3913  -10.5279 O.2       7 UNK        -0.5186 
     49 N          28.7623    2.9595   -8.5209 N.am      8 UNK        -0.4240 
     50 CA         29.9042    3.6414   -7.9027 C.3       8 UNK         0.0235 
     51 CB         30.2556    4.9378   -8.6704 C.3       8 UNK        -0.2000 
     52 C          31.0900    2.6852   -7.6764 C.2       8 UNK         0.4941 
     53 O          30.8777    1.5669   -7.2077 O.2       8 UNK        -0.5273 
     54 N          32.3141    3.1361   -7.9889 N.am      9 UNK        -0.4262 
     55 CA         33.5585    2.3752   -7.8302 C.3       9 UNK         0.0264 
     56 CB         34.7583    3.3019   -8.0837 C.3       9 UNK        -0.1955 
     57 C          33.6430    1.1269   -8.7267 C.2       9 UNK         0.5031 
     58 O          34.3006    0.1578   -8.3471 O.2       9 UNK        -0.5390 
     59 N          32.9504    1.1476   -9.8727 N.am      10 UNK        -0.4204 
     60 CA         32.7669    0.0026  -10.7651 C.3       10 UNK         0.0237 
     61 CB         32.7427    0.5061  -12.2211 C.3       10 UNK        -0.1985 
     62 C          31.4842   -0.7539  -10.3731 C.2       10 UNK         0.4970 
     63 O          30.6052   -0.9458  -11.2142 O.2       10 UNK        -0.4914 
     64 N          31.3920   -1.1223   -9.0887 N.am      11 UNK        -0.4285 
     65 CA         30.2190   -1.7153   -8.4355 C.3       11 UNK         0.1007 
     66 C          29.6661   -2.9937   -9.1241 C.2       11 UNK         0.5703 
     67 N          28.3489   -3.1412   -9.1657 N.am      11 UNK        -0.7361 
     68 O          30.4119   -3.8543   -9.5887 O.2       11 UNK        -0.4986 
     69 C69        30.4450   -1.9201   -6.9136 C.3       12 UNK        -0.0947 
     70 S70        31.9345   -2.8807   -6.4795 S.3       12 UNK        -0.2240 
     71 C71        32.8812   -1.6618   -5.5140 C.3       12 UNK         0.0194 
     72 H72        26.0784   -6.9393   -3.8498 H         1 UNK         0.0906 
     73 H73        24.6309   -7.1630   -2.8667 H         1 UNK         0.0906 
     74 H74        24.6416   -5.9618   -4.1602 H         1 UNK         0.0906 
     75 H75        27.6604   -5.6874   -2.8806 H         1 UNK         0.3140 
     76 H76        27.3812   -4.4122   -0.4041 H         1 UNK         0.1085 
     77 H77        29.5912   -3.8631   -2.4548 H         1 UNK         0.0836 
     78 H78        29.5287   -5.3176   -1.4953 H         1 UNK         0.0836 
     79 H79        32.1352   -4.0224   -1.1580 H         1 UNK         0.0731 
     80 H80        32.3377   -2.7272   -0.0050 H         1 UNK         0.0731 
     81 H81        32.6680   -3.2919   -3.3467 H         1 UNK         0.1312 
     82 H82        31.6725    0.6484   -4.7054 H         1 UNK         0.1406 
     83 H83        30.6582   -0.5676   -0.7167 H         1 UNK         0.1631 
     84 H84        31.3186    2.2607   -2.2203 H         1 UNK         0.0717 
     85 H85        29.9098    1.5479   -1.4728 H         1 UNK         0.0717 
     86 H86        28.3464    0.1791   -3.1746 H         1 UNK         0.0934 
     87 H87        27.2000    1.4845   -3.2336 H         1 UNK         0.0934 
     88 H88        28.5928    0.5710   -5.7920 H         1 UNK         0.0739 
     89 H89        27.0176   -1.1867   -4.3178 H         1 UNK         0.3093 
     90 H90        25.5915   -3.0971   -6.9418 H         1 UNK         0.0818 
     91 H91        27.8328   -3.7414   -4.9447 H         1 UNK         0.0819 
     92 H92        26.6921   -4.9108   -5.6088 H         1 UNK         0.0819 
     93 H93        27.8307   -4.1008   -6.6604 H         1 UNK         0.0819 
     94 H94        25.5650   -3.0923   -4.0269 H         1 UNK         0.3041 
     95 H95        22.6393   -1.1203   -3.6984 H         1 UNK         0.0784 
     96 H96        21.6259   -3.2965   -4.2910 H         1 UNK         0.0793 
     97 H97        22.8831   -4.1644   -3.4252 H         1 UNK         0.0793 
     98 H98        21.7462   -3.1444   -2.5457 H         1 UNK         0.0793 
     99 H99        24.3231   -2.7303   -1.9388 H         1 UNK         0.3024 
    100 H100       26.5888   -0.0930   -1.2032 H         1 UNK         0.1171 
    101 H101       25.8292   -0.3464    1.1436 H         1 UNK         0.0786 
    102 H102       24.6476    0.5745    0.2292 H         1 UNK         0.0786 
    103 H103       24.3327   -1.1132    0.6085 H         1 UNK         0.0786 
    104 H104       26.2634   -2.6031    0.0568 H         1 UNK         0.2977 
    105 H105       25.2763    0.3554   -6.2143 H         1 UNK         0.3127 
    106 H106       24.5603    3.0546   -6.8300 H         1 UNK         0.0770 
    107 H107       23.6030    0.4018   -8.0408 H         1 UNK         0.0814 
    108 H108       22.8079    1.9584   -8.2370 H         1 UNK         0.0814 
    109 H109       22.8919    1.2149   -6.6476 H         1 UNK         0.0814 
    110 H110       26.6149    0.7088   -8.4636 H         1 UNK         0.2983 
    111 H111       26.9094    2.4189  -10.8785 H         1 UNK         0.0947 
    112 H112       28.2354    0.4985  -11.7330 H         1 UNK         0.0806 
    113 H113       26.6340   -0.0152  -11.2335 H         1 UNK         0.0806 
    114 H114       28.0250   -0.3485  -10.2091 H         1 UNK         0.0806 
    115 H115       27.9557    2.8723   -7.9115 H         1 UNK         0.3000 
    116 H116       29.5717    3.9335   -6.9054 H         1 UNK         0.0850 
    117 H117       30.9864    5.5374   -8.1264 H         1 UNK         0.0810 
    118 H118       29.3725    5.5638   -8.7996 H         1 UNK         0.0810 
    119 H119       30.6598    4.7344   -9.6628 H         1 UNK         0.0810 
    120 H120       32.3976    4.0707   -8.3622 H         1 UNK         0.3040 
    121 H121       33.6042    2.0318   -6.7943 H         1 UNK         0.0766 
    122 H122       34.7635    4.1444   -7.3917 H         1 UNK         0.0812 
    123 H123       34.7557    3.6993   -9.0995 H         1 UNK         0.0812 
    124 H124       35.6993    2.7672   -7.9459 H         1 UNK         0.0812 
    125 H125       32.3778    1.9579  -10.0672 H         1 UNK         0.3205 
    126 H126       33.6031   -0.6925  -10.6640 H         1 UNK         0.0754 
    127 H127       32.6376   -0.3243  -12.9204 H         1 UNK         0.0769 
    128 H128       33.6656    1.0277  -12.4752 H         1 UNK         0.0769 
    129 H129       31.9109    1.1902  -12.3969 H         1 UNK         0.0769 
    130 H130       32.1782   -0.9375   -8.4820 H         1 UNK         0.2981 
    131 H131       29.4477   -0.9502   -8.5250 H         1 UNK         0.0541 
    132 H132       27.7472   -2.4377   -8.7499 H         1 UNK         0.3459 
    133 H133       27.9538   -3.9573   -9.6039 H         1 UNK         0.3459 
    134 H134       30.4966   -0.9443   -6.4318 H         1 UNK         0.0612 
    135 H135       29.5890   -2.4135   -6.4556 H         1 UNK         0.0612 
    136 H136       32.9999   -0.7511   -6.1026 H         1 UNK         0.0624 
    137 H137       33.8861   -2.0509   -5.3453 H         1 UNK         0.0624 
@<TRIPOS>BOND
     1    1    2 1    
     2    1   72 1    
     3    1   73 1    
     4    1   74 1    
     5    2    3 2    
     6    2    4 am   BACKBONE|DICT|INTERRES
     7    4    5 1    
     8    4   75 1    
     9    5    6 1    
    10    5   35 1    
    11    5   76 1    
    12    6    7 1    
    13    6   77 1    
    14    6   78 1    
    15    7    8 1    
    16    8    9 1    
    17    8   79 1    
    18    8   80 1    
    19    9   10 ar   
    20    9   14 ar   
    21   10   11 ar   
    22   10   81 1    
    23   11   12 ar   
    24   11   71 1    
    25   12   13 ar   
    26   12   82 1    
    27   13   14 ar   
    28   13   15 1    
    29   14   83 1    
    30   15   16 1    
    31   15   84 1    
    32   15   85 1    
    33   16   17 1    
    34   17   18 1    
    35   17   86 1    
    36   17   87 1    
    37   18   19 1    
    38   18   37 1    
    39   18   88 1    
    40   19   20 am   BACKBONE|DICT|INTERRES
    41   19   89 1    
    42   20   21 2    
    43   20   22 1    
    44   22   23 1    
    45   22   24 1    
    46   22   90 1    
    47   23   91 1    
    48   23   92 1    
    49   23   93 1    
    50   24   25 am   BACKBONE|DICT|INTERRES
    51   24   94 1    
    52   25   26 2    
    53   25   27 1    
    54   27   28 1    
    55   27   29 1    
    56   27   95 1    
    57   28   96 1    
    58   28   97 1    
    59   28   98 1    
    60   29   30 am   BACKBONE|DICT|INTERRES
    61   29   99 1    
    62   30   31 2    
    63   30   32 1    
    64   32   33 1    
    65   32   34 1    
    66   32  100 1    
    67   33  101 1    
    68   33  102 1    
    69   33  103 1    
    70   34   35 am   BACKBONE|DICT|INTERRES
    71   34  104 1    
    72   35   36 2    
    73   37   38 2    
    74   37   39 am   BACKBONE|DICT|INTERRES
    75   39   40 1    
    76   39  105 1    
    77   40   41 1    
    78   40   42 1    
    79   40  106 1    
    80   41  107 1    
    81   41  108 1    
    82   41  109 1    
    83   42   43 2    
    84   42   44 am   BACKBONE|DICT|INTERRES
    85   44   45 1    
    86   44  110 1    
    87   45   46 1    
    88   45   47 1    
    89   45  111 1    
    90   46  112 1    
    91   46  113 1    
    92   46  114 1    
    93   47   48 2    
    94   47   49 am   BACKBONE|DICT|INTERRES
    95   49   50 1    
    96   49  115 1    
    97   50   51 1    
    98   50   52 1    
    99   50  116 1    
   100   51  117 1    
   101   51  118 1    
   102   51  119 1    
   103   52   53 2    
   104   52   54 am   BACKBONE|DICT|INTERRES
   105   54   55 1    
   106   54  120 1    
   107   55   56 1    
   108   55   57 1    
   109   55  121 1    
   110   56  122 1    
   111   56  123 1    
   112   56  124 1    
   113   57   58 2    
   114   57   59 am   BACKBONE|DICT|INTERRES
   115   59   60 1    
   116   59  125 1    
   117   60   61 1    
   118   60   62 1    
   119   60  126 1    
   120   61  127 1    
   121   61  128 1    
   122   61  129 1    
   123   62   63 2    
   124   62   64 am   BACKBONE|DICT|INTERRES
   125   64   65 1    
   126   64  130 1    
   127   65   66 1    
   128   65   69 1    
   129   65  131 1    
   130   66   67 am   BACKBONE|DICT|INTERRES
   131   66   68 2    
   132   67  132 1    
   133   67  133 1    
   134   69   70 1    
   135   69  134 1    
   136   69  135 1    
   137   70   71 1    
   138   71  136 1    
   139   71  137 1    
@<TRIPOS>SUBSTRUCTURE
     1 UNK         1 GROUP             0       ****    0 ROOT    
