@<TRIPOS>MOLECULE
3R137
137   139    1
SMALL
USER_CHARGES


@<TRIPOS>ATOM
      1 CA         26.3873   -2.5056    3.5210 C.3       0 UNK        -0.2020 
      2 C          27.1739   -1.8112    2.4197 C.2       0 UNK         0.4855 
      3 O          27.9659   -0.9130    2.7052 O.2       0 UNK        -0.5197 
      4 N          26.9594   -2.2158    1.1609 N.am      1 UNK        -0.4892 
      5 CA         27.6521   -1.6811   -0.0216 C.3       1 UNK         0.0835 
      6 C6         27.5706   -2.6469   -1.2320 C.3       12 UNK        -0.0855 
      7 S7         28.1517   -4.3325   -0.8577 S.3       12 UNK        -0.2931 
      8 C8         29.8570   -4.2832   -1.5017 C.3       12 UNK         0.0378 
      9 C9         29.9593   -4.4839   -3.0124 C.ar      12 UNK        -0.0802 
     10 C10        30.8021   -3.6618   -3.7688 C.ar      12 UNK        -0.0944 
     11 C11        31.0130   -3.9157   -5.1282 C.ar      12 UNK        -0.0787 
     12 C12        30.3572   -4.9878   -5.7378 C.ar      12 UNK        -0.0862 
     13 C13        29.4983   -5.8085   -5.0004 C.ar      12 UNK        -0.0733 
     14 C14        29.3031   -5.5500   -3.6396 C.ar      12 UNK        -0.0832 
     15 C15        28.8436   -7.0212   -5.6499 C.3       12 UNK         0.0240 
     16 S16        27.1777   -6.6617   -6.2911 S.3       12 UNK        -0.2522 
     17 C17        27.5528   -5.6818   -7.7864 C.3       12 UNK        -0.0967 
     18 CA         26.9175   -4.2698   -7.7616 C.3       5 UNK         0.0660 
     19 N          27.1743   -3.5512   -6.5050 N.am      5 UNK        -0.4015 
     20 C          26.5981   -2.3947   -6.1524 C.2       4 UNK         0.4946 
     21 O          25.8708   -1.7335   -6.8983 O.2       4 UNK        -0.5353 
     22 CA         26.9309   -1.8730   -4.7457 C.3       4 UNK         0.0277 
     23 CB         28.2451   -1.0773   -4.7644 C.3       4 UNK        -0.1981 
     24 N          25.8732   -1.0183   -4.2032 N.am      4 UNK        -0.4209 
     25 C          24.6393   -1.4290   -3.8837 C.2       3 UNK         0.4942 
     26 O          24.2680   -2.6030   -3.9362 O.2       3 UNK        -0.5208 
     27 CA         23.6996   -0.3432   -3.3423 C.3       3 UNK         0.0250 
     28 CB         22.2417   -0.8227   -3.2077 C.3       3 UNK        -0.1990 
     29 N          24.1991    0.0518   -2.0290 N.am      3 UNK        -0.4232 
     30 C          24.6617    1.2629   -1.6954 C.2       2 UNK         0.4993 
     31 O          24.6271    2.2448   -2.4371 O.2       2 UNK        -0.5286 
     32 CA         25.3051    1.3836   -0.3025 C.3       2 UNK         0.0209 
     33 CB         24.2497    1.7470    0.7546 C.3       2 UNK        -0.1931 
     34 N          25.9949    0.1518    0.0979 N.am      2 UNK        -0.4546 
     35 C          27.1455   -0.2825   -0.4402 C.2       1 UNK         0.5154 
     36 O          27.7874    0.3642   -1.2685 O.2       1 UNK        -0.5181 
     37 C          27.3250   -3.4758   -9.0217 C.2       5 UNK         0.5014 
     38 O          26.7412   -3.6939  -10.0844 O.2       5 UNK        -0.5248 
     39 N          28.2947   -2.5639   -8.8778 N.am      6 UNK        -0.4434 
     40 CA         28.7086   -1.6039   -9.8952 C.3       6 UNK         0.0363 
     41 CB         30.0212   -2.0675  -10.5526 C.3       6 UNK        -0.1936 
     42 C          28.7919   -0.2058   -9.2649 C.2       6 UNK         0.5081 
     43 O          29.7913    0.4954   -9.4331 O.2       6 UNK        -0.5248 
     44 N          27.7256    0.1949   -8.5535 N.am      7 UNK        -0.4718 
     45 CA         27.5729    1.5249   -7.9461 C.3       7 UNK         0.0273 
     46 CB         26.2473    1.5979   -7.1719 C.3       7 UNK        -0.1935 
     47 C          27.6577    2.6808   -8.9584 C.2       7 UNK         0.5018 
     48 O          28.1802    3.7407   -8.6172 O.2       7 UNK        -0.5186 
     49 N          27.2120    2.4363  -10.1996 N.am      8 UNK        -0.4240 
     50 CA         27.3386    3.3540  -11.3371 C.3       8 UNK         0.0235 
     51 CB         26.5413    2.7962  -12.5272 C.3       8 UNK        -0.2000 
     52 C          28.7969    3.6350  -11.7514 C.2       8 UNK         0.4941 
     53 O          29.0669    4.7056  -12.2963 O.2       8 UNK        -0.5273 
     54 N          29.7073    2.6908  -11.4717 N.am      9 UNK        -0.4262 
     55 CA         31.1527    2.8351  -11.6617 C.3       9 UNK         0.0264 
     56 CB         31.7232    1.4924  -12.1518 C.3       9 UNK        -0.1955 
     57 C          31.8662    3.2843  -10.3714 C.2       9 UNK         0.5031 
     58 O          33.0824    3.4772  -10.4069 O.2       9 UNK        -0.5390 
     59 N          31.1162    3.4278   -9.2655 N.am      10 UNK        -0.4204 
     60 CA         31.5627    3.7555   -7.9084 C.3       10 UNK         0.0237 
     61 CB         32.0518    5.2181   -7.8356 C.3       10 UNK        -0.1985 
     62 C          32.5874    2.7423   -7.3637 C.2       10 UNK         0.4970 
     63 O          33.6431    3.1452   -6.8706 O.2       10 UNK        -0.4914 
     64 N          32.2676    1.4439   -7.4800 N.am      11 UNK        -0.4285 
     65 CA         33.1515    0.3403   -7.0660 C.3       11 UNK         0.1007 
     66 C          33.4704    0.2498   -5.5425 C.2       11 UNK         0.5703 
     67 N          32.6959    0.8751   -4.6634 N.am      11 UNK        -0.7361 
     68 O          34.4445   -0.3926   -5.1575 O.2       11 UNK        -0.4986 
     69 C69        32.7000   -1.0184   -7.6658 C.3       12 UNK        -0.0947 
     70 S70        31.2240   -1.7624   -6.8811 S.3       12 UNK        -0.2240 
     71 C71        32.0150   -3.0894   -5.9204 C.3       12 UNK         0.0194 
     72 H72        25.7254   -3.2765    3.1266 H         1 UNK         0.0906 
     73 H73        27.0694   -2.9753    4.2293 H         1 UNK         0.0906 
     74 H74        25.7796   -1.7812    4.0627 H         1 UNK         0.0906 
     75 H75        26.3241   -2.9819    0.9836 H         1 UNK         0.3140 
     76 H76        28.7069   -1.5603    0.2361 H         1 UNK         0.1085 
     77 H77        28.1600   -2.2580   -2.0630 H         1 UNK         0.0836 
     78 H78        26.5435   -2.7233   -1.5943 H         1 UNK         0.0836 
     79 H79        30.3251   -3.3454   -1.1979 H         1 UNK         0.0731 
     80 H80        30.4276   -5.0765   -1.0172 H         1 UNK         0.0731 
     81 H81        31.3330   -2.8494   -3.2911 H         1 UNK         0.1312 
     82 H82        30.5494   -5.2008   -6.7801 H         1 UNK         0.1406 
     83 H83        28.6675   -6.2039   -3.0574 H         1 UNK         0.1631 
     84 H84        28.7653   -7.8276   -4.9190 H         1 UNK         0.0717 
     85 H85        29.4699   -7.4104   -6.4544 H         1 UNK         0.0717 
     86 H86        27.1779   -6.2410   -8.6462 H         1 UNK         0.0934 
     87 H87        28.6313   -5.6197   -7.9305 H         1 UNK         0.0934 
     88 H88        25.8345   -4.3996   -7.8192 H         1 UNK         0.0739 
     89 H89        27.7621   -4.0340   -5.8392 H         1 UNK         0.3093 
     90 H90        27.0418   -2.7331   -4.0830 H         1 UNK         0.0818 
     91 H91        28.4576   -0.6192   -3.7987 H         1 UNK         0.0819 
     92 H92        29.0825   -1.7320   -4.9942 H         1 UNK         0.0819 
     93 H93        28.2351   -0.2854   -5.5135 H         1 UNK         0.0819 
     94 H94        26.0905   -0.0370   -4.1093 H         1 UNK         0.3041 
     95 H95        23.7217    0.4952   -4.0422 H         1 UNK         0.0784 
     96 H96        21.8486   -1.1486   -4.1716 H         1 UNK         0.0793 
     97 H97        22.1504   -1.6611   -2.5160 H         1 UNK         0.0793 
     98 H98        21.5957   -0.0217   -2.8478 H         1 UNK         0.0793 
     99 H99        24.2979   -0.6934   -1.3546 H         1 UNK         0.3024 
    100 H100       26.0398    2.1912   -0.3486 H         1 UNK         0.1171 
    101 H101       24.7054    1.8992    1.7333 H         1 UNK         0.0786 
    102 H102       23.4896    0.9711    0.8543 H         1 UNK         0.0786 
    103 H103       23.7372    2.6732    0.4902 H         1 UNK         0.0786 
    104 H104       25.5483   -0.4274    0.7942 H         1 UNK         0.2977 
    105 H105       28.7171   -2.4452   -7.9667 H         1 UNK         0.3127 
    106 H106       27.9493   -1.5335  -10.6769 H         1 UNK         0.0770 
    107 H107       30.8274   -2.1612   -9.8268 H         1 UNK         0.0814 
    108 H108       30.3466   -1.3641  -11.3193 H         1 UNK         0.0814 
    109 H109       29.8968   -3.0360  -11.0367 H         1 UNK         0.0814 
    110 H110       26.9626   -0.4571   -8.4080 H         1 UNK         0.2983 
    111 H111       28.3929    1.6579   -7.2371 H         1 UNK         0.0947 
    112 H112       26.1036    2.5858   -6.7315 H         1 UNK         0.0806 
    113 H113       26.2226    0.8794   -6.3549 H         1 UNK         0.0806 
    114 H114       25.3905    1.3991   -7.8167 H         1 UNK         0.0806 
    115 H115       26.7927    1.5363  -10.3829 H         1 UNK         0.3000 
    116 H116       26.8955    4.3082  -11.0435 H         1 UNK         0.0850 
    117 H117       26.5926    3.4723  -13.3820 H         1 UNK         0.0810 
    118 H118       25.4871    2.6739  -12.2776 H         1 UNK         0.0810 
    119 H119       26.9252    1.8289  -12.8539 H         1 UNK         0.0810 
    120 H120       29.4150    1.8499  -10.9866 H         1 UNK         0.3040 
    121 H121       31.3540    3.5884  -12.4261 H         1 UNK         0.0766 
    122 H122       31.6353    0.7155  -11.3918 H         1 UNK         0.0812 
    123 H123       31.2126    1.1456  -13.0502 H         1 UNK         0.0812 
    124 H124       32.7819    1.5851  -12.3971 H         1 UNK         0.0812 
    125 H125       30.1191    3.2750   -9.3542 H         1 UNK         0.3205 
    126 H126       30.6836    3.6724   -7.2677 H         1 UNK         0.0754 
    127 H127       32.2885    5.5008   -6.8091 H         1 UNK         0.0769 
    128 H128       31.2871    5.9081   -8.1925 H         1 UNK         0.0769 
    129 H129       32.9507    5.3761   -8.4324 H         1 UNK         0.0769 
    130 H130       31.3986    1.1781   -7.9267 H         1 UNK         0.2981 
    131 H131       34.1135    0.5609   -7.5332 H         1 UNK         0.0541 
    132 H132       32.9153    0.8160   -3.6821 H         1 UNK         0.3459 
    133 H133       31.8933    1.3977   -4.9725 H         1 UNK         0.3459 
    134 H134       32.4898   -0.8931   -8.7286 H         1 UNK         0.0612 
    135 H135       33.5260   -1.7302   -7.6219 H         1 UNK         0.0612 
    136 H136       32.5675   -3.7408   -6.5994 H         1 UNK         0.0624 
    137 H137       32.7543   -2.6559   -5.2460 H         1 UNK         0.0624 
@<TRIPOS>BOND
     1    1    2 1    
     2    1   72 1    
     3    1   73 1    
     4    1   74 1    
     5    2    3 2    
     6    2    4 am   BACKBONE|DICT|INTERRES
     7    4    5 1    
     8    4   75 1    
     9    5    6 1    
    10    5   35 1    
    11    5   76 1    
    12    6    7 1    
    13    6   77 1    
    14    6   78 1    
    15    7    8 1    
    16    8    9 1    
    17    8   79 1    
    18    8   80 1    
    19    9   10 ar   
    20    9   14 ar   
    21   10   11 ar   
    22   10   81 1    
    23   11   12 ar   
    24   11   71 1    
    25   12   13 ar   
    26   12   82 1    
    27   13   14 ar   
    28   13   15 1    
    29   14   83 1    
    30   15   16 1    
    31   15   84 1    
    32   15   85 1    
    33   16   17 1    
    34   17   18 1    
    35   17   86 1    
    36   17   87 1    
    37   18   19 1    
    38   18   37 1    
    39   18   88 1    
    40   19   20 am   BACKBONE|DICT|INTERRES
    41   19   89 1    
    42   20   21 2    
    43   20   22 1    
    44   22   23 1    
    45   22   24 1    
    46   22   90 1    
    47   23   91 1    
    48   23   92 1    
    49   23   93 1    
    50   24   25 am   BACKBONE|DICT|INTERRES
    51   24   94 1    
    52   25   26 2    
    53   25   27 1    
    54   27   28 1    
    55   27   29 1    
    56   27   95 1    
    57   28   96 1    
    58   28   97 1    
    59   28   98 1    
    60   29   30 am   BACKBONE|DICT|INTERRES
    61   29   99 1    
    62   30   31 2    
    63   30   32 1    
    64   32   33 1    
    65   32   34 1    
    66   32  100 1    
    67   33  101 1    
    68   33  102 1    
    69   33  103 1    
    70   34   35 am   BACKBONE|DICT|INTERRES
    71   34  104 1    
    72   35   36 2    
    73   37   38 2    
    74   37   39 am   BACKBONE|DICT|INTERRES
    75   39   40 1    
    76   39  105 1    
    77   40   41 1    
    78   40   42 1    
    79   40  106 1    
    80   41  107 1    
    81   41  108 1    
    82   41  109 1    
    83   42   43 2    
    84   42   44 am   BACKBONE|DICT|INTERRES
    85   44   45 1    
    86   44  110 1    
    87   45   46 1    
    88   45   47 1    
    89   45  111 1    
    90   46  112 1    
    91   46  113 1    
    92   46  114 1    
    93   47   48 2    
    94   47   49 am   BACKBONE|DICT|INTERRES
    95   49   50 1    
    96   49  115 1    
    97   50   51 1    
    98   50   52 1    
    99   50  116 1    
   100   51  117 1    
   101   51  118 1    
   102   51  119 1    
   103   52   53 2    
   104   52   54 am   BACKBONE|DICT|INTERRES
   105   54   55 1    
   106   54  120 1    
   107   55   56 1    
   108   55   57 1    
   109   55  121 1    
   110   56  122 1    
   111   56  123 1    
   112   56  124 1    
   113   57   58 2    
   114   57   59 am   BACKBONE|DICT|INTERRES
   115   59   60 1    
   116   59  125 1    
   117   60   61 1    
   118   60   62 1    
   119   60  126 1    
   120   61  127 1    
   121   61  128 1    
   122   61  129 1    
   123   62   63 2    
   124   62   64 am   BACKBONE|DICT|INTERRES
   125   64   65 1    
   126   64  130 1    
   127   65   66 1    
   128   65   69 1    
   129   65  131 1    
   130   66   67 am   BACKBONE|DICT|INTERRES
   131   66   68 2    
   132   67  132 1    
   133   67  133 1    
   134   69   70 1    
   135   69  134 1    
   136   69  135 1    
   137   70   71 1    
   138   71  136 1    
   139   71  137 1    
@<TRIPOS>SUBSTRUCTURE
     1 UNK         1 GROUP             0       ****    0 ROOT    
