@<TRIPOS>MOLECULE
3R137
137   139    1
SMALL
USER_CHARGES


@<TRIPOS>ATOM
      1 CA         29.2896   -5.8486   -0.1641 C.3       0 UNK        -0.2020 
      2 C          28.1491   -5.0058    0.3866 C.2       0 UNK         0.4855 
      3 O          27.2242   -5.5457    0.9935 O.2       0 UNK        -0.5197 
      4 N          28.2069   -3.6839    0.1778 N.am      1 UNK        -0.4892 
      5 CA         27.1908   -2.7158    0.6133 C.3       1 UNK         0.0835 
      6 C6         27.7658   -1.2738    0.6583 C.3       12 UNK        -0.0855 
      7 S7         28.1881   -0.5826   -0.9813 S.3       12 UNK        -0.2931 
      8 C8         29.9767   -0.8868   -1.0906 C.3       12 UNK         0.0378 
      9 C9         30.3876   -1.0981   -2.5391 C.ar      12 UNK        -0.0802 
     10 C10        30.9605   -0.0566   -3.2748 C.ar      12 UNK        -0.0944 
     11 C11        31.3373   -0.2561   -4.6061 C.ar      12 UNK        -0.0787 
     12 C12        31.1325   -1.5052   -5.2010 C.ar      12 UNK        -0.0862 
     13 C13        30.5565   -2.5528   -4.4779 C.ar      12 UNK        -0.0733 
     14 C14        30.1883   -2.3423   -3.1463 C.ar      12 UNK        -0.0832 
     15 C15        30.3500   -3.9197   -5.1208 C.3       12 UNK         0.0240 
     16 S16        29.3644   -3.8594   -6.6535 S.3       12 UNK        -0.2522 
     17 C17        27.7769   -3.1823   -6.0726 C.3       12 UNK        -0.0967 
     18 CA         27.2370   -2.0521   -6.9851 C.3       5 UNK         0.0660 
     19 N          25.7890   -1.8971   -6.8229 N.am      5 UNK        -0.4015 
     20 C          24.9875   -1.2216   -7.6582 C.2       4 UNK         0.4946 
     21 O          25.3781   -0.6677   -8.6846 O.2       4 UNK        -0.5353 
     22 CA         23.5014   -1.1226   -7.2702 C.3       4 UNK         0.0277 
     23 CB         22.7266   -2.3438   -7.7902 C.3       4 UNK        -0.1981 
     24 N          23.2914   -0.9856   -5.8264 N.am      4 UNK        -0.4209 
     25 C          23.6775    0.0770   -5.1057 C.2       3 UNK         0.4942 
     26 O          24.2093    1.0733   -5.5904 O.2       3 UNK        -0.5208 
     27 CA         23.4869    0.0000   -3.5821 C.3       3 UNK         0.0250 
     28 CB         22.0932    0.5133   -3.1870 C.3       3 UNK        -0.1990 
     29 N          23.6995   -1.3363   -3.0143 N.am      3 UNK        -0.4232 
     30 C          24.8273   -2.0503   -3.1326 C.2       2 UNK         0.4993 
     31 O          25.7990   -1.6985   -3.8072 O.2       2 UNK        -0.5286 
     32 CA         24.8725   -3.3961   -2.3967 C.3       2 UNK         0.0209 
     33 CB         25.1017   -4.5556   -3.3806 C.3       2 UNK        -0.1931 
     34 N          25.9540   -3.3753   -1.4170 N.am      2 UNK        -0.4546 
     35 C          25.8836   -2.7917   -0.2119 C.2       1 UNK         0.5154 
     36 O          24.8457   -2.3158    0.2521 O.2       1 UNK        -0.5181 
     37 C          27.9605   -0.7081   -6.7632 C.2       5 UNK         0.5014 
     38 O          28.8443   -0.3472   -7.5476 O.2       5 UNK        -0.5248 
     39 N          27.5212    0.0293   -5.7315 N.am      6 UNK        -0.4434 
     40 CA         27.9619    1.3913   -5.4359 C.3       6 UNK         0.0363 
     41 CB         27.4162    1.8335   -4.0707 C.3       6 UNK        -0.1936 
     42 C          27.5767    2.3916   -6.5376 C.2       6 UNK         0.5081 
     43 O          28.4306    3.1679   -6.9633 O.2       6 UNK        -0.5248 
     44 N          26.3208    2.3374   -7.0068 N.am      7 UNK        -0.4718 
     45 CA         25.7931    3.1775   -8.0890 C.3       7 UNK         0.0273 
     46 CB         24.2760    2.9711   -8.2180 C.3       7 UNK        -0.1935 
     47 C          26.4848    2.9382   -9.4410 C.2       7 UNK         0.5018 
     48 O          26.7199    3.8986  -10.1752 O.2       7 UNK        -0.5186 
     49 N          26.8289    1.6753   -9.7317 N.am      8 UNK        -0.4240 
     50 CA         27.6331    1.2804  -10.8916 C.3       8 UNK         0.0235 
     51 CB         27.5337   -0.2427  -11.0796 C.3       8 UNK        -0.2000 
     52 C          29.1105    1.7040  -10.7889 C.2       8 UNK         0.4941 
     53 O          29.7939    1.7164  -11.8134 O.2       8 UNK        -0.5273 
     54 N          29.5779    2.0164   -9.5687 N.am      9 UNK        -0.4262 
     55 CA         30.9529    2.3678   -9.1966 C.3       9 UNK         0.0264 
     56 CB         31.3581    3.7273   -9.8033 C.3       9 UNK        -0.1955 
     57 C          31.9576    1.2438   -9.5122 C.2       9 UNK         0.5031 
     58 O          33.1017    1.5213   -9.8788 O.2       9 UNK        -0.5390 
     59 N          31.5171   -0.0137   -9.3513 N.am      10 UNK        -0.4204 
     60 CA         32.2680   -1.2208   -9.7195 C.3       10 UNK         0.0237 
     61 CB         31.3424   -2.4387   -9.5960 C.3       10 UNK        -0.1985 
     62 C          33.5658   -1.4379   -8.9183 C.2       10 UNK         0.4970 
     63 O          34.4474   -2.1611   -9.3831 O.2       10 UNK        -0.4914 
     64 N          33.6623   -0.8006   -7.7467 N.am      11 UNK        -0.4285 
     65 CA         34.8632   -0.7300   -6.9091 C.3       11 UNK         0.1007 
     66 C          35.9662    0.2363   -7.4371 C.2       11 UNK         0.5703 
     67 N          35.7149    1.0540   -8.4549 N.am      11 UNK        -0.7361 
     68 O          37.0812    0.2301   -6.9208 O.2       11 UNK        -0.4986 
     69 C69        34.4924   -0.4707   -5.4243 C.3       12 UNK        -0.0947 
     70 S70        33.7109    1.1508   -5.0848 S.3       12 UNK        -0.2240 
     71 C71        31.9364    0.8850   -5.4136 C.3       12 UNK         0.0194 
     72 H72        30.0524   -5.2403   -0.6497 H         1 UNK         0.0906 
     73 H73        29.7656   -6.4070    0.6417 H         1 UNK         0.0906 
     74 H74        28.9094   -6.5628   -0.8941 H         1 UNK         0.0906 
     75 H75        28.9943   -3.2902   -0.3137 H         1 UNK         0.3140 
     76 H76        26.9116   -2.9809    1.6359 H         1 UNK         0.1085 
     77 H77        27.0401   -0.6034    1.1228 H         1 UNK         0.0836 
     78 H78        28.6429   -1.2387    1.3066 H         1 UNK         0.0836 
     79 H79        30.5118   -0.0424   -0.6535 H         1 UNK         0.0731 
     80 H80        30.2554   -1.7621   -0.5032 H         1 UNK         0.0731 
     81 H81        31.1108    0.9103   -2.8145 H         1 UNK         0.1312 
     82 H82        31.4113   -1.6658   -6.2324 H         1 UNK         0.1406 
     83 H83        29.7410   -3.1475   -2.5816 H         1 UNK         0.1631 
     84 H84        29.8687   -4.6097   -4.4260 H         1 UNK         0.0717 
     85 H85        31.3263   -4.3482   -5.3512 H         1 UNK         0.0717 
     86 H86        27.0758   -4.0180   -6.0650 H         1 UNK         0.0934 
     87 H87        27.8539   -2.8512   -5.0355 H         1 UNK         0.0934 
     88 H88        27.4070   -2.3424   -8.0245 H         1 UNK         0.0739 
     89 H89        25.4028   -2.2368   -5.9529 H         1 UNK         0.3093 
     90 H90        23.0942   -0.2318   -7.7529 H         1 UNK         0.0818 
     91 H91        21.6576   -2.2461   -7.6001 H         1 UNK         0.0819 
     92 H92        22.8526   -2.4538   -8.8684 H         1 UNK         0.0819 
     93 H93        23.0679   -3.2701   -7.3264 H         1 UNK         0.0819 
     94 H94        22.8509   -1.7575   -5.3473 H         1 UNK         0.3041 
     95 H95        24.2316    0.6601   -3.1323 H         1 UNK         0.0784 
     96 H96        21.9205    1.5155   -3.5824 H         1 UNK         0.0793 
     97 H97        21.3003   -0.1297   -3.5712 H         1 UNK         0.0793 
     98 H98        21.9838    0.5725   -2.1039 H         1 UNK         0.0793 
     99 H99        22.9549   -1.6992   -2.4360 H         1 UNK         0.3024 
    100 H100       23.9239   -3.5650   -1.8817 H         1 UNK         0.1171 
    101 H101       24.3272   -4.5784   -4.1483 H         1 UNK         0.0786 
    102 H102       25.0771   -5.5173   -2.8677 H         1 UNK         0.0786 
    103 H103       26.0638   -4.4744   -3.8865 H         1 UNK         0.0786 
    104 H104       26.8573   -3.6959   -1.7305 H         1 UNK         0.2977 
    105 H105       26.8205   -0.3714   -5.1165 H         1 UNK         0.3127 
    106 H106       29.0501    1.3754   -5.3731 H         1 UNK         0.0770 
    107 H107       26.3266    1.8426   -4.0505 H         1 UNK         0.0814 
    108 H108       27.7574    2.8388   -3.8213 H         1 UNK         0.0814 
    109 H109       27.7605    1.1695   -3.2792 H         1 UNK         0.0814 
    110 H110       25.6554    1.7123   -6.5552 H         1 UNK         0.2983 
    111 H111       25.9723    4.2186   -7.8118 H         1 UNK         0.0947 
    112 H112       23.8602    3.6028   -9.0040 H         1 UNK         0.0806 
    113 H113       23.7608    3.2259   -7.2917 H         1 UNK         0.0806 
    114 H114       24.0309    1.9378   -8.4646 H         1 UNK         0.0806 
    115 H115       26.5207    0.9284   -9.1151 H         1 UNK         0.3000 
    116 H116       27.2155    1.7642  -11.7771 H         1 UNK         0.0850 
    117 H117       28.1110   -0.5712  -11.9450 H         1 UNK         0.0810 
    118 H118       26.5020   -0.5552  -11.2420 H         1 UNK         0.0810 
    119 H119       27.9128   -0.7810  -10.2099 H         1 UNK         0.0810 
    120 H120       28.9251    1.9803   -8.7946 H         1 UNK         0.3040 
    121 H121       30.9522    2.4804   -8.1117 H         1 UNK         0.0766 
    122 H122       30.6333    4.5025   -9.5544 H         1 UNK         0.0812 
    123 H123       31.4390    3.6783  -10.8896 H         1 UNK         0.0812 
    124 H124       32.3256    4.0537   -9.4200 H         1 UNK         0.0812 
    125 H125       30.5732   -0.1485   -9.0040 H         1 UNK         0.3205 
    126 H126       32.5557   -1.1177  -10.7678 H         1 UNK         0.0754 
    127 H127       31.8539   -3.3556   -9.8924 H         1 UNK         0.0769 
    128 H128       30.4619   -2.3379  -10.2310 H         1 UNK         0.0769 
    129 H129       31.0028   -2.5701   -8.5705 H         1 UNK         0.0769 
    130 H130       32.9023   -0.2027   -7.4673 H         1 UNK         0.2981 
    131 H131       35.3224   -1.7199   -6.9386 H         1 UNK         0.0541 
    132 H132       36.4464    1.6642   -8.7822 H         1 UNK         0.3459 
    133 H133       34.8023    1.0853   -8.8968 H         1 UNK         0.3459 
    134 H134       35.3913   -0.5303   -4.8084 H         1 UNK         0.0612 
    135 H135       33.8528   -1.2714   -5.0549 H         1 UNK         0.0612 
    136 H136       31.4086    1.8095   -5.1756 H         1 UNK         0.0624 
    137 H137       31.7735    0.7228   -6.4775 H         1 UNK         0.0624 
@<TRIPOS>BOND
     1    1    2 1    
     2    1   72 1    
     3    1   73 1    
     4    1   74 1    
     5    2    3 2    
     6    2    4 am   BACKBONE|DICT|INTERRES
     7    4    5 1    
     8    4   75 1    
     9    5    6 1    
    10    5   35 1    
    11    5   76 1    
    12    6    7 1    
    13    6   77 1    
    14    6   78 1    
    15    7    8 1    
    16    8    9 1    
    17    8   79 1    
    18    8   80 1    
    19    9   10 ar   
    20    9   14 ar   
    21   10   11 ar   
    22   10   81 1    
    23   11   12 ar   
    24   11   71 1    
    25   12   13 ar   
    26   12   82 1    
    27   13   14 ar   
    28   13   15 1    
    29   14   83 1    
    30   15   16 1    
    31   15   84 1    
    32   15   85 1    
    33   16   17 1    
    34   17   18 1    
    35   17   86 1    
    36   17   87 1    
    37   18   19 1    
    38   18   37 1    
    39   18   88 1    
    40   19   20 am   BACKBONE|DICT|INTERRES
    41   19   89 1    
    42   20   21 2    
    43   20   22 1    
    44   22   23 1    
    45   22   24 1    
    46   22   90 1    
    47   23   91 1    
    48   23   92 1    
    49   23   93 1    
    50   24   25 am   BACKBONE|DICT|INTERRES
    51   24   94 1    
    52   25   26 2    
    53   25   27 1    
    54   27   28 1    
    55   27   29 1    
    56   27   95 1    
    57   28   96 1    
    58   28   97 1    
    59   28   98 1    
    60   29   30 am   BACKBONE|DICT|INTERRES
    61   29   99 1    
    62   30   31 2    
    63   30   32 1    
    64   32   33 1    
    65   32   34 1    
    66   32  100 1    
    67   33  101 1    
    68   33  102 1    
    69   33  103 1    
    70   34   35 am   BACKBONE|DICT|INTERRES
    71   34  104 1    
    72   35   36 2    
    73   37   38 2    
    74   37   39 am   BACKBONE|DICT|INTERRES
    75   39   40 1    
    76   39  105 1    
    77   40   41 1    
    78   40   42 1    
    79   40  106 1    
    80   41  107 1    
    81   41  108 1    
    82   41  109 1    
    83   42   43 2    
    84   42   44 am   BACKBONE|DICT|INTERRES
    85   44   45 1    
    86   44  110 1    
    87   45   46 1    
    88   45   47 1    
    89   45  111 1    
    90   46  112 1    
    91   46  113 1    
    92   46  114 1    
    93   47   48 2    
    94   47   49 am   BACKBONE|DICT|INTERRES
    95   49   50 1    
    96   49  115 1    
    97   50   51 1    
    98   50   52 1    
    99   50  116 1    
   100   51  117 1    
   101   51  118 1    
   102   51  119 1    
   103   52   53 2    
   104   52   54 am   BACKBONE|DICT|INTERRES
   105   54   55 1    
   106   54  120 1    
   107   55   56 1    
   108   55   57 1    
   109   55  121 1    
   110   56  122 1    
   111   56  123 1    
   112   56  124 1    
   113   57   58 2    
   114   57   59 am   BACKBONE|DICT|INTERRES
   115   59   60 1    
   116   59  125 1    
   117   60   61 1    
   118   60   62 1    
   119   60  126 1    
   120   61  127 1    
   121   61  128 1    
   122   61  129 1    
   123   62   63 2    
   124   62   64 am   BACKBONE|DICT|INTERRES
   125   64   65 1    
   126   64  130 1    
   127   65   66 1    
   128   65   69 1    
   129   65  131 1    
   130   66   67 am   BACKBONE|DICT|INTERRES
   131   66   68 2    
   132   67  132 1    
   133   67  133 1    
   134   69   70 1    
   135   69  134 1    
   136   69  135 1    
   137   70   71 1    
   138   71  136 1    
   139   71  137 1    
@<TRIPOS>SUBSTRUCTURE
     1 UNK         1 GROUP             0       ****    0 ROOT    
