@<TRIPOS>MOLECULE
3R137
137   139    1
SMALL
USER_CHARGES


@<TRIPOS>ATOM
      1 CA         28.2826   -5.2898    2.0469 C.3       0 UNK        -0.2020 
      2 C          27.8825   -3.8790    1.6428 C.2       0 UNK         0.4855 
      3 O          27.0127   -3.2853    2.2801 O.2       0 UNK        -0.5197 
      4 N          28.5172   -3.3379    0.5946 N.am      1 UNK        -0.4892 
      5 CA         28.2383   -2.0126    0.0303 C.3       1 UNK         0.0835 
      6 C6         29.3778   -1.5775   -0.9229 C.3       12 UNK        -0.0855 
      7 S7         29.1900    0.1066   -1.6040 S.3       12 UNK        -0.2931 
      8 C8         30.7747    0.3319   -2.4767 C.3       12 UNK         0.0378 
      9 C9         31.1385   -0.8594   -3.3543 C.ar      12 UNK        -0.0802 
     10 C10        32.2683   -1.6272   -3.0597 C.ar      12 UNK        -0.0944 
     11 C11        32.6026   -2.7313   -3.8487 C.ar      12 UNK        -0.0787 
     12 C12        31.7967   -3.0704   -4.9390 C.ar      12 UNK        -0.0862 
     13 C13        30.6677   -2.3065   -5.2462 C.ar      12 UNK        -0.0733 
     14 C14        30.3429   -1.2044   -4.4502 C.ar      12 UNK        -0.0832 
     15 C15        29.8203   -2.6397   -6.4618 C.3       12 UNK         0.0240 
     16 S16        28.1847   -3.2901   -5.9998 S.3       12 UNK        -0.2522 
     17 C17        27.3826   -3.3054   -7.6401 C.3       12 UNK        -0.0967 
     18 CA         26.4549   -2.1048   -7.9703 C.3       5 UNK         0.0660 
     19 N          25.1715   -2.1339   -7.2648 N.am      5 UNK        -0.4015 
     20 C          24.0191   -1.7423   -7.8338 C.2       4 UNK         0.4946 
     21 O          23.9166   -1.4020   -9.0133 O.2       4 UNK        -0.5353 
     22 CA         22.7594   -1.7065   -6.9521 C.3       4 UNK         0.0277 
     23 CB         22.0875   -3.0888   -6.9145 C.3       4 UNK        -0.1981 
     24 N          23.0046   -1.2465   -5.5859 N.am      4 UNK        -0.4209 
     25 C          23.4983   -0.0469   -5.2459 C.2       3 UNK         0.4942 
     26 O          23.8000    0.8310   -6.0533 O.2       3 UNK        -0.5208 
     27 CA         23.7358    0.1948   -3.7456 C.3       3 UNK         0.0250 
     28 CB         22.4897    0.8200   -3.0990 C.3       3 UNK        -0.1990 
     29 N          24.1192   -1.0127   -3.0053 N.am      3 UNK        -0.4232 
     30 C          25.1856   -1.7771   -3.2803 C.2       2 UNK         0.4993 
     31 O          25.9579   -1.5650   -4.2191 O.2       2 UNK        -0.5286 
     32 CA         25.3968   -3.0049   -2.3784 C.3       2 UNK         0.0209 
     33 CB         25.4282   -4.2984   -3.2098 C.3       2 UNK        -0.1931 
     34 N          26.6306   -2.8962   -1.6007 N.am      2 UNK        -0.4546 
     35 C          26.8502   -1.9808   -0.6453 C.2       1 UNK         0.5154 
     36 O          26.0039   -1.1668   -0.2694 O.2       1 UNK        -0.5181 
     37 C          27.1281   -0.7284   -7.8170 C.2       5 UNK         0.5014 
     38 O          27.6694   -0.2228   -8.8003 O.2       5 UNK        -0.5248 
     39 N          27.0571   -0.1244   -6.6176 N.am      6 UNK        -0.4434 
     40 CA         27.6609    1.1773   -6.3014 C.3       6 UNK         0.0363 
     41 CB         27.4190    1.5182   -4.8231 C.3       6 UNK        -0.1936 
     42 C          27.1612    2.3270   -7.1944 C.2       6 UNK         0.5081 
     43 O          27.9449    3.2160   -7.5267 O.2       6 UNK        -0.5248 
     44 N          25.8815    2.2710   -7.5916 N.am      7 UNK        -0.4718 
     45 CA         25.2555    3.1931   -8.5423 C.3       7 UNK         0.0273 
     46 CB         23.7387    2.9453   -8.5612 C.3       7 UNK        -0.1935 
     47 C          25.8279    3.1055   -9.9698 C.2       7 UNK         0.5018 
     48 O          25.7382    4.0915  -10.7028 O.2       7 UNK        -0.5186 
     49 N          26.3977    1.9501  -10.3431 N.am      8 UNK        -0.4240 
     50 CA         27.1112    1.7581  -11.6041 C.3       8 UNK         0.0235 
     51 CB         26.9730    0.3016  -12.0826 C.3       8 UNK        -0.2000 
     52 C          28.5788    2.1724  -11.4349 C.2       8 UNK         0.4941 
     53 O          29.0202    3.1014  -12.1124 O.2       8 UNK        -0.5273 
     54 N          29.2911    1.5064  -10.5163 N.am      9 UNK        -0.4262 
     55 CA         30.6744    1.7904  -10.1366 C.3       9 UNK         0.0264 
     56 CB         31.6500    1.5231  -11.3027 C.3       9 UNK        -0.1955 
     57 C          31.0506    0.9134   -8.9389 C.2       9 UNK         0.5031 
     58 O          30.7923   -0.2914   -8.9682 O.2       9 UNK        -0.5390 
     59 N          31.6958    1.5162   -7.9333 N.am      10 UNK        -0.4204 
     60 CA         32.2950    0.8054   -6.8019 C.3       10 UNK         0.0237 
     61 CB         32.4970    1.7892   -5.6376 C.3       10 UNK        -0.1985 
     62 C          33.6261    0.1428   -7.1989 C.2       10 UNK         0.4970 
     63 O          34.2524    0.5667   -8.1748 O.2       10 UNK        -0.4914 
     64 N          34.0420   -0.8713   -6.4294 N.am      11 UNK        -0.4285 
     65 CA         35.3160   -1.5820   -6.6184 C.3       11 UNK         0.1007 
     66 C          36.5762   -0.6962   -6.3835 C.2       11 UNK         0.5703 
     67 N          37.7135   -1.0782   -6.9503 N.am      11 UNK        -0.7361 
     68 O          36.5425    0.3110   -5.6773 O.2       11 UNK        -0.4986 
     69 C69        35.3625   -2.9114   -5.8160 C.3       12 UNK        -0.0947 
     70 S70        35.3662   -2.7113   -3.9987 S.3       12 UNK        -0.2240 
     71 C71        33.8322   -3.5583   -3.5107 C.3       12 UNK         0.0194 
     72 H72        27.4199   -5.9538    1.9948 H         1 UNK         0.0906 
     73 H73        29.0614   -5.6954    1.4012 H         1 UNK         0.0906 
     74 H74        28.6553   -5.2956    3.0710 H         1 UNK         0.0906 
     75 H75        29.2272   -3.8779    0.1202 H         1 UNK         0.3140 
     76 H76        28.2084   -1.3007    0.8585 H         1 UNK         0.1085 
     77 H77        29.4599   -2.2817   -1.7529 H         1 UNK         0.0836 
     78 H78        30.3324   -1.6191   -0.3956 H         1 UNK         0.0836 
     79 H79        30.7128    1.2290   -3.0937 H         1 UNK         0.0731 
     80 H80        31.5559    0.5207   -1.7387 H         1 UNK         0.0731 
     81 H81        32.8907   -1.3702   -2.2133 H         1 UNK         0.1312 
     82 H82        32.0526   -3.9233   -5.5529 H         1 UNK         0.1406 
     83 H83        29.4649   -0.6202   -4.6826 H         1 UNK         0.1631 
     84 H84        30.3273   -3.3636   -7.1017 H         1 UNK         0.0717 
     85 H85        29.6996   -1.7361   -7.0582 H         1 UNK         0.0717 
     86 H86        28.1568   -3.3827   -8.4060 H         1 UNK         0.0934 
     87 H87        26.8141   -4.2330   -7.7225 H         1 UNK         0.0934 
     88 H88        26.2488   -2.2059   -9.0386 H         1 UNK         0.0739 
     89 H89        25.1989   -2.3519   -6.2771 H         1 UNK         0.3093 
     90 H90        22.0628   -1.0009   -7.4103 H         1 UNK         0.0818 
     91 H91        21.1380   -3.0550   -6.3798 H         1 UNK         0.0819 
     92 H92        21.8750   -3.4463   -7.9232 H         1 UNK         0.0819 
     93 H93        22.7201   -3.8347   -6.4313 H         1 UNK         0.0819 
     94 H94        22.7884   -1.8944   -4.8429 H         1 UNK         0.3041 
     95 H95        24.5568    0.9057   -3.6514 H         1 UNK         0.0784 
     96 H96        22.1989    1.7345   -3.6185 H         1 UNK         0.0793 
     97 H97        21.6349    0.1430   -3.1273 H         1 UNK         0.0793 
     98 H98        22.6739    1.0870   -2.0581 H         1 UNK         0.0793 
     99 H99        23.5507   -1.2450   -2.2033 H         1 UNK         0.3024 
    100 H100       24.5639   -3.0775   -1.6753 H         1 UNK         0.1171 
    101 H101       24.5193   -4.4045   -3.8037 H         1 UNK         0.0786 
    102 H102       25.5017   -5.1789   -2.5712 H         1 UNK         0.0786 
    103 H103       26.2717   -4.3149   -3.9006 H         1 UNK         0.0786 
    104 H104       27.3836   -3.5164   -1.8583 H         1 UNK         0.2977 
    105 H105       26.6180   -0.6203   -5.8455 H         1 UNK         0.3127 
    106 H106       28.7365    1.0759   -6.4615 H         1 UNK         0.0770 
    107 H107       26.3827    1.8020   -4.6455 H         1 UNK         0.0814 
    108 H108       28.0409    2.3589   -4.5135 H         1 UNK         0.0814 
    109 H109       27.6498    0.6816   -4.1649 H         1 UNK         0.0814 
    110 H110       25.2837    1.5465   -7.2030 H         1 UNK         0.2983 
    111 H111       25.4332    4.2097   -8.1851 H         1 UNK         0.0947 
    112 H112       23.2387    3.6169   -9.2604 H         1 UNK         0.0806 
    113 H113       23.2975    3.1158   -7.5790 H         1 UNK         0.0806 
    114 H114       23.5022    1.9232   -8.8608 H         1 UNK         0.0806 
    115 H115       26.4954    1.2114   -9.6551 H         1 UNK         0.3000 
    116 H116       26.6683    2.3960  -12.3724 H         1 UNK         0.0850 
    117 H117       27.4789    0.1599  -13.0384 H         1 UNK         0.0810 
    118 H118       25.9265    0.0333  -12.2276 H         1 UNK         0.0810 
    119 H119       27.4034   -0.4121  -11.3807 H         1 UNK         0.0810 
    120 H120       28.8405    0.7706   -9.9725 H         1 UNK         0.3040 
    121 H121       30.7377    2.8409   -9.8459 H         1 UNK         0.0766 
    122 H122       32.6853    1.6434  -10.9803 H         1 UNK         0.0812 
    123 H123       31.4945    2.2124  -12.1320 H         1 UNK         0.0812 
    124 H124       31.5451    0.5075  -11.6859 H         1 UNK         0.0812 
    125 H125       31.9157    2.4984   -8.0142 H         1 UNK         0.3205 
    126 H126       31.6051    0.0240   -6.4872 H         1 UNK         0.0754 
    127 H127       32.9073    1.2824   -4.7630 H         1 UNK         0.0769 
    128 H128       31.5530    2.2428   -5.3346 H         1 UNK         0.0769 
    129 H129       33.1876    2.5914   -5.9016 H         1 UNK         0.0769 
    130 H130       33.5011   -1.1428   -5.6203 H         1 UNK         0.2981 
    131 H131       35.3414   -1.8601   -7.6744 H         1 UNK         0.0541 
    132 H132       37.7598   -1.9067   -7.5230 H         1 UNK         0.3459 
    133 H133       38.5436   -0.5255   -6.8016 H         1 UNK         0.3459 
    134 H134       36.2551   -3.4781   -6.0861 H         1 UNK         0.0612 
    135 H135       34.5247   -3.5439   -6.1117 H         1 UNK         0.0612 
    136 H136       33.7884   -4.5416   -3.9818 H         1 UNK         0.0624 
    137 H137       33.8591   -3.7376   -2.4348 H         1 UNK         0.0624 
@<TRIPOS>BOND
     1    1    2 1    
     2    1   72 1    
     3    1   73 1    
     4    1   74 1    
     5    2    3 2    
     6    2    4 am   BACKBONE|DICT|INTERRES
     7    4    5 1    
     8    4   75 1    
     9    5    6 1    
    10    5   35 1    
    11    5   76 1    
    12    6    7 1    
    13    6   77 1    
    14    6   78 1    
    15    7    8 1    
    16    8    9 1    
    17    8   79 1    
    18    8   80 1    
    19    9   10 ar   
    20    9   14 ar   
    21   10   11 ar   
    22   10   81 1    
    23   11   12 ar   
    24   11   71 1    
    25   12   13 ar   
    26   12   82 1    
    27   13   14 ar   
    28   13   15 1    
    29   14   83 1    
    30   15   16 1    
    31   15   84 1    
    32   15   85 1    
    33   16   17 1    
    34   17   18 1    
    35   17   86 1    
    36   17   87 1    
    37   18   19 1    
    38   18   37 1    
    39   18   88 1    
    40   19   20 am   BACKBONE|DICT|INTERRES
    41   19   89 1    
    42   20   21 2    
    43   20   22 1    
    44   22   23 1    
    45   22   24 1    
    46   22   90 1    
    47   23   91 1    
    48   23   92 1    
    49   23   93 1    
    50   24   25 am   BACKBONE|DICT|INTERRES
    51   24   94 1    
    52   25   26 2    
    53   25   27 1    
    54   27   28 1    
    55   27   29 1    
    56   27   95 1    
    57   28   96 1    
    58   28   97 1    
    59   28   98 1    
    60   29   30 am   BACKBONE|DICT|INTERRES
    61   29   99 1    
    62   30   31 2    
    63   30   32 1    
    64   32   33 1    
    65   32   34 1    
    66   32  100 1    
    67   33  101 1    
    68   33  102 1    
    69   33  103 1    
    70   34   35 am   BACKBONE|DICT|INTERRES
    71   34  104 1    
    72   35   36 2    
    73   37   38 2    
    74   37   39 am   BACKBONE|DICT|INTERRES
    75   39   40 1    
    76   39  105 1    
    77   40   41 1    
    78   40   42 1    
    79   40  106 1    
    80   41  107 1    
    81   41  108 1    
    82   41  109 1    
    83   42   43 2    
    84   42   44 am   BACKBONE|DICT|INTERRES
    85   44   45 1    
    86   44  110 1    
    87   45   46 1    
    88   45   47 1    
    89   45  111 1    
    90   46  112 1    
    91   46  113 1    
    92   46  114 1    
    93   47   48 2    
    94   47   49 am   BACKBONE|DICT|INTERRES
    95   49   50 1    
    96   49  115 1    
    97   50   51 1    
    98   50   52 1    
    99   50  116 1    
   100   51  117 1    
   101   51  118 1    
   102   51  119 1    
   103   52   53 2    
   104   52   54 am   BACKBONE|DICT|INTERRES
   105   54   55 1    
   106   54  120 1    
   107   55   56 1    
   108   55   57 1    
   109   55  121 1    
   110   56  122 1    
   111   56  123 1    
   112   56  124 1    
   113   57   58 2    
   114   57   59 am   BACKBONE|DICT|INTERRES
   115   59   60 1    
   116   59  125 1    
   117   60   61 1    
   118   60   62 1    
   119   60  126 1    
   120   61  127 1    
   121   61  128 1    
   122   61  129 1    
   123   62   63 2    
   124   62   64 am   BACKBONE|DICT|INTERRES
   125   64   65 1    
   126   64  130 1    
   127   65   66 1    
   128   65   69 1    
   129   65  131 1    
   130   66   67 am   BACKBONE|DICT|INTERRES
   131   66   68 2    
   132   67  132 1    
   133   67  133 1    
   134   69   70 1    
   135   69  134 1    
   136   69  135 1    
   137   70   71 1    
   138   71  136 1    
   139   71  137 1    
@<TRIPOS>SUBSTRUCTURE
     1 UNK         1 GROUP             0       ****    0 ROOT    
