@<TRIPOS>MOLECULE
3R137
137   139    1
SMALL
USER_CHARGES


@<TRIPOS>ATOM
      1 CA         28.0463   -5.0396    1.8091 C.3       0 UNK        -0.2020 
      2 C          27.7756   -4.0133    0.7200 C.2       0 UNK         0.4855 
      3 O          27.7738   -4.3668   -0.4588 O.2       0 UNK        -0.5197 
      4 N          27.5504   -2.7509    1.1107 N.am      1 UNK        -0.4892 
      5 CA         27.2684   -1.5677    0.2789 C.3       1 UNK         0.0835 
      6 C6         28.3820   -1.2035   -0.7385 C.3       12 UNK        -0.0855 
      7 S7         30.0173   -0.9151    0.0270 S.3       12 UNK        -0.2931 
      8 C8         30.9759   -2.3845   -0.4787 C.3       12 UNK         0.0378 
      9 C9         31.1005   -2.5039   -1.9917 C.ar      12 UNK        -0.0802 
     10 C10        32.0035   -1.7032   -2.6968 C.ar      12 UNK        -0.0944 
     11 C11        32.0886   -1.7914   -4.0901 C.ar      12 UNK        -0.0787 
     12 C12        31.2632   -2.6878   -4.7782 C.ar      12 UNK        -0.0862 
     13 C13        30.3568   -3.4921   -4.0817 C.ar      12 UNK        -0.0733 
     14 C14        30.2968   -3.4091   -2.6898 C.ar      12 UNK        -0.0832 
     15 C15        29.4246   -4.4437   -4.8153 C.3       12 UNK         0.0240 
     16 S16        27.8434   -3.6357   -5.2248 S.3       12 UNK        -0.2522 
     17 C17        28.1653   -3.0978   -6.9359 C.3       12 UNK        -0.0967 
     18 CA         27.3352   -1.8818   -7.4130 C.3       5 UNK         0.0660 
     19 N          25.8902   -2.0408   -7.2298 N.am      5 UNK        -0.4015 
     20 C          24.9795   -1.3681   -7.9476 C.2       4 UNK         0.4946 
     21 O          25.2660   -0.5517   -8.8251 O.2       4 UNK        -0.5353 
     22 CA         23.5022   -1.6289   -7.6140 C.3       4 UNK         0.0277 
     23 CB         23.0949   -3.0694   -7.9679 C.3       4 UNK        -0.1981 
     24 N          23.1726   -1.3470   -6.2152 N.am      4 UNK        -0.4209 
     25 C          23.2827   -0.1444   -5.6328 C.2       3 UNK         0.4942 
     26 O          23.7039    0.8603   -6.2016 O.2       3 UNK        -0.5208 
     27 CA         22.8654   -0.0360   -4.1584 C.3       3 UNK         0.0250 
     28 CB         21.3640    0.2751   -4.0490 C.3       3 UNK        -0.1990 
     29 N          23.1821   -1.2110   -3.3421 N.am      3 UNK        -0.4232 
     30 C          24.4089   -1.7186   -3.1621 C.2       2 UNK         0.4993 
     31 O          25.4113   -1.3458   -3.7782 O.2       2 UNK        -0.5286 
     32 CA         24.5257   -2.8449   -2.1220 C.3       2 UNK         0.0209 
     33 CB         24.6145   -4.2146   -2.8131 C.3       2 UNK        -0.1931 
     34 N          25.6952   -2.6612   -1.2631 N.am      2 UNK        -0.4546 
     35 C          25.8962   -1.6370   -0.4237 C.2       1 UNK         0.5154 
     36 O          25.0514   -0.7711   -0.1889 O.2       1 UNK        -0.5181 
     37 C          27.8565   -0.5356   -6.8755 C.2       5 UNK         0.5014 
     38 O          28.8206   -0.0183   -7.4370 O.2       5 UNK        -0.5248 
     39 N          27.1959    0.0418   -5.8586 N.am      6 UNK        -0.4434 
     40 CA         27.4710    1.3996   -5.3824 C.3       6 UNK         0.0363 
     41 CB         26.6985    1.6725   -4.0827 C.3       6 UNK        -0.1936 
     42 C          27.1616    2.4690   -6.4467 C.2       6 UNK         0.5081 
     43 O          28.0116    3.3204   -6.7076 O.2       6 UNK        -0.5248 
     44 N          25.9755    2.3936   -7.0708 N.am      7 UNK        -0.4718 
     45 CA         25.5439    3.2991   -8.1430 C.3       7 UNK         0.0273 
     46 CB         24.0517    3.0847   -8.4402 C.3       7 UNK        -0.1935 
     47 C          26.3714    3.1518   -9.4298 C.2       7 UNK         0.5018 
     48 O          26.6447    4.1547  -10.0898 O.2       7 UNK        -0.5186 
     49 N          26.7819    1.9162   -9.7469 N.am      8 UNK        -0.4240 
     50 CA         27.6664    1.5950  -10.8709 C.3       8 UNK         0.0235 
     51 CB         27.5140    0.1031  -11.2116 C.3       8 UNK        -0.2000 
     52 C          29.1491    1.9364  -10.6182 C.2       8 UNK         0.4941 
     53 O          29.9636    1.7309  -11.5202 O.2       8 UNK        -0.5273 
     54 N          29.4948    2.3962   -9.4056 N.am      9 UNK        -0.4262 
     55 CA         30.8349    2.6636   -8.8650 C.3       9 UNK         0.0264 
     56 CB         31.6091    3.7067   -9.6949 C.3       9 UNK        -0.1955 
     57 C          31.6602    1.3862   -8.6352 C.2       9 UNK         0.5031 
     58 O          32.1677    1.2038   -7.5289 O.2       9 UNK        -0.5390 
     59 N          31.7466    0.5298   -9.6642 N.am      10 UNK        -0.4204 
     60 CA         32.2850   -0.8366   -9.7231 C.3       10 UNK         0.0237 
     61 CB         31.4132   -1.7937   -8.8873 C.3       10 UNK        -0.1985 
     62 C          33.7754   -0.9956   -9.3696 C.2       10 UNK         0.4970 
     63 O          34.5296   -1.5456  -10.1733 O.2       10 UNK        -0.4914 
     64 N          34.1623   -0.5490   -8.1739 N.am      11 UNK        -0.4285 
     65 CA         35.5229   -0.6049   -7.6305 C.3       11 UNK         0.1007 
     66 C          36.4715    0.4082   -8.3265 C.2       11 UNK         0.5703 
     67 N          37.7548    0.0875   -8.4225 N.am      11 UNK        -0.7361 
     68 O          36.0675    1.4923   -8.7448 O.2       11 UNK        -0.4986 
     69 C69        35.5176   -0.3990   -6.0932 C.3       12 UNK        -0.0947 
     70 S70        34.6213   -1.7201   -5.2058 S.3       12 UNK        -0.2240 
     71 C71        33.0424   -0.8900   -4.8557 C.3       12 UNK         0.0194 
     72 H72        27.2962   -5.8292    1.7742 H         1 UNK         0.0906 
     73 H73        29.0256   -5.4935    1.6594 H         1 UNK         0.0906 
     74 H74        28.0269   -4.5962    2.8045 H         1 UNK         0.0906 
     75 H75        27.5546   -2.5575    2.1030 H         1 UNK         0.3140 
     76 H76        27.2006   -0.7358    0.9824 H         1 UNK         0.1085 
     77 H77        28.4495   -1.9632   -1.5142 H         1 UNK         0.0836 
     78 H78        28.1163   -0.2843   -1.2644 H         1 UNK         0.0836 
     79 H79        31.9721   -2.3222   -0.0385 H         1 UNK         0.0731 
     80 H80        30.5168   -3.2795   -0.0581 H         1 UNK         0.0731 
     81 H81        32.6268   -0.9999   -2.1613 H         1 UNK         0.1312 
     82 H82        31.3213   -2.7512   -5.8551 H         1 UNK         0.1406 
     83 H83        29.5952   -4.0310   -2.1520 H         1 UNK         0.1631 
     84 H84        29.2169   -5.3120   -4.1880 H         1 UNK         0.0717 
     85 H85        29.9011   -4.8327   -5.7164 H         1 UNK         0.0717 
     86 H86        29.2296   -2.8932   -7.0611 H         1 UNK         0.0934 
     87 H87        27.9572   -3.9490   -7.5862 H         1 UNK         0.0934 
     88 H88        27.5006   -1.8347   -8.4912 H         1 UNK         0.0739 
     89 H89        25.5934   -2.6605   -6.4896 H         1 UNK         0.3093 
     90 H90        22.9081   -0.9516   -8.2315 H         1 UNK         0.0818 
     91 H91        22.0205   -3.2151   -7.8542 H         1 UNK         0.0819 
     92 H92        23.3417   -3.3003   -9.0052 H         1 UNK         0.0819 
     93 H93        23.5999   -3.8052   -7.3410 H         1 UNK         0.0819 
     94 H94        22.8230   -2.1143   -5.6604 H         1 UNK         0.3041 
     95 H95        23.4133    0.8056   -3.7303 H         1 UNK         0.0784 
     96 H96        21.1056    1.1602   -4.6325 H         1 UNK         0.0793 
     97 H97        20.7514   -0.5485   -4.4181 H         1 UNK         0.0793 
     98 H98        21.0732    0.4755   -3.0175 H         1 UNK         0.0793 
     99 H99        22.4178   -1.5958   -2.8054 H         1 UNK         0.3024 
    100 H100       23.6417   -2.8327   -1.4808 H         1 UNK         0.1171 
    101 H101       23.7454   -4.3921   -3.4479 H         1 UNK         0.0786 
    102 H102       24.6549   -5.0244   -2.0843 H         1 UNK         0.0786 
    103 H103       25.5009   -4.2895   -3.4435 H         1 UNK         0.0786 
    104 H104       26.4433   -3.3455   -1.3400 H         1 UNK         0.2977 
    105 H105       26.4497   -0.4668   -5.3944 H         1 UNK         0.3127 
    106 H106       28.5380    1.4580   -5.1559 H         1 UNK         0.0770 
    107 H107       25.6211    1.6175   -4.2348 H         1 UNK         0.0814 
    108 H108       26.9239    2.6674   -3.6969 H         1 UNK         0.0814 
    109 H109       26.9634    0.9546   -3.3061 H         1 UNK         0.0814 
    110 H110       25.3034    1.6845   -6.7835 H         1 UNK         0.2983 
    111 H111       25.6754    4.3229   -7.7861 H         1 UNK         0.0947 
    112 H112       23.7085    3.7531   -9.2311 H         1 UNK         0.0806 
    113 H113       23.4404    3.2840   -7.5600 H         1 UNK         0.0806 
    114 H114       23.8492    2.0624   -8.7632 H         1 UNK         0.0806 
    115 H115       26.4538    1.1371   -9.1841 H         1 UNK         0.3000 
    116 H116       27.3460    2.1760  -11.7382 H         1 UNK         0.0850 
    117 H117       28.0825   -0.1563  -12.1057 H         1 UNK         0.0810 
    118 H118       26.4731   -0.1583  -11.4036 H         1 UNK         0.0810 
    119 H119       27.8760   -0.5297  -10.4015 H         1 UNK         0.0810 
    120 H120       28.7545    2.4759   -8.7189 H         1 UNK         0.3040 
    121 H121       30.6599    3.1004   -7.8802 H         1 UNK         0.0766 
    122 H122       32.5489    3.9664   -9.2059 H         1 UNK         0.0812 
    123 H123       31.0360    4.6271   -9.8061 H         1 UNK         0.0812 
    124 H124       31.8568    3.3431  -10.6922 H         1 UNK         0.0812 
    125 H125       31.2813    0.8420  -10.5147 H         1 UNK         0.3205 
    126 H126       32.1853   -1.1405  -10.7664 H         1 UNK         0.0754 
    127 H127       31.7947   -2.8149   -8.9264 H         1 UNK         0.0769 
    128 H128       30.3879   -1.8137   -9.2573 H         1 UNK         0.0769 
    129 H129       31.3780   -1.4942   -7.8402 H         1 UNK         0.0769 
    130 H130       33.4825   -0.0058   -7.6458 H         1 UNK         0.2981 
    131 H131       35.9099   -1.6056   -7.8338 H         1 UNK         0.0541 
    132 H132       38.1005   -0.7925   -8.0722 H         1 UNK         0.3459 
    133 H133       38.3905    0.7374   -8.8583 H         1 UNK         0.3459 
    134 H134       35.0946    0.5738   -5.8353 H         1 UNK         0.0612 
    135 H135       36.5392   -0.3952   -5.7085 H         1 UNK         0.0612 
    136 H136       33.2282    0.0284   -4.2967 H         1 UNK         0.0624 
    137 H137       32.5759   -0.5941   -5.7931 H         1 UNK         0.0624 
@<TRIPOS>BOND
     1    1    2 1    
     2    1   72 1    
     3    1   73 1    
     4    1   74 1    
     5    2    3 2    
     6    2    4 am   BACKBONE|DICT|INTERRES
     7    4    5 1    
     8    4   75 1    
     9    5    6 1    
    10    5   35 1    
    11    5   76 1    
    12    6    7 1    
    13    6   77 1    
    14    6   78 1    
    15    7    8 1    
    16    8    9 1    
    17    8   79 1    
    18    8   80 1    
    19    9   10 ar   
    20    9   14 ar   
    21   10   11 ar   
    22   10   81 1    
    23   11   12 ar   
    24   11   71 1    
    25   12   13 ar   
    26   12   82 1    
    27   13   14 ar   
    28   13   15 1    
    29   14   83 1    
    30   15   16 1    
    31   15   84 1    
    32   15   85 1    
    33   16   17 1    
    34   17   18 1    
    35   17   86 1    
    36   17   87 1    
    37   18   19 1    
    38   18   37 1    
    39   18   88 1    
    40   19   20 am   BACKBONE|DICT|INTERRES
    41   19   89 1    
    42   20   21 2    
    43   20   22 1    
    44   22   23 1    
    45   22   24 1    
    46   22   90 1    
    47   23   91 1    
    48   23   92 1    
    49   23   93 1    
    50   24   25 am   BACKBONE|DICT|INTERRES
    51   24   94 1    
    52   25   26 2    
    53   25   27 1    
    54   27   28 1    
    55   27   29 1    
    56   27   95 1    
    57   28   96 1    
    58   28   97 1    
    59   28   98 1    
    60   29   30 am   BACKBONE|DICT|INTERRES
    61   29   99 1    
    62   30   31 2    
    63   30   32 1    
    64   32   33 1    
    65   32   34 1    
    66   32  100 1    
    67   33  101 1    
    68   33  102 1    
    69   33  103 1    
    70   34   35 am   BACKBONE|DICT|INTERRES
    71   34  104 1    
    72   35   36 2    
    73   37   38 2    
    74   37   39 am   BACKBONE|DICT|INTERRES
    75   39   40 1    
    76   39  105 1    
    77   40   41 1    
    78   40   42 1    
    79   40  106 1    
    80   41  107 1    
    81   41  108 1    
    82   41  109 1    
    83   42   43 2    
    84   42   44 am   BACKBONE|DICT|INTERRES
    85   44   45 1    
    86   44  110 1    
    87   45   46 1    
    88   45   47 1    
    89   45  111 1    
    90   46  112 1    
    91   46  113 1    
    92   46  114 1    
    93   47   48 2    
    94   47   49 am   BACKBONE|DICT|INTERRES
    95   49   50 1    
    96   49  115 1    
    97   50   51 1    
    98   50   52 1    
    99   50  116 1    
   100   51  117 1    
   101   51  118 1    
   102   51  119 1    
   103   52   53 2    
   104   52   54 am   BACKBONE|DICT|INTERRES
   105   54   55 1    
   106   54  120 1    
   107   55   56 1    
   108   55   57 1    
   109   55  121 1    
   110   56  122 1    
   111   56  123 1    
   112   56  124 1    
   113   57   58 2    
   114   57   59 am   BACKBONE|DICT|INTERRES
   115   59   60 1    
   116   59  125 1    
   117   60   61 1    
   118   60   62 1    
   119   60  126 1    
   120   61  127 1    
   121   61  128 1    
   122   61  129 1    
   123   62   63 2    
   124   62   64 am   BACKBONE|DICT|INTERRES
   125   64   65 1    
   126   64  130 1    
   127   65   66 1    
   128   65   69 1    
   129   65  131 1    
   130   66   67 am   BACKBONE|DICT|INTERRES
   131   66   68 2    
   132   67  132 1    
   133   67  133 1    
   134   69   70 1    
   135   69  134 1    
   136   69  135 1    
   137   70   71 1    
   138   71  136 1    
   139   71  137 1    
@<TRIPOS>SUBSTRUCTURE
     1 UNK         1 GROUP             0       ****    0 ROOT    
