@<TRIPOS>MOLECULE
3R137
137   139    1
SMALL
USER_CHARGES


@<TRIPOS>ATOM
      1 CA         29.9237   -3.3178   -4.8654 C.3       0 UNK        -0.2020 
      2 C          28.6845   -3.7221   -4.0860 C.2       0 UNK         0.4855 
      3 O          27.6065   -3.8491   -4.6705 O.2       0 UNK        -0.5197 
      4 N          28.8488   -3.9140   -2.7697 N.am      1 UNK        -0.4892 
      5 CA         27.8543   -4.4152   -1.8125 C.3       1 UNK         0.0835 
      6 C6         28.4160   -4.4733   -0.3666 C.3       12 UNK        -0.0855 
      7 S7         30.0391   -5.3058   -0.2364 S.3       12 UNK        -0.2931 
      8 C8         31.1195   -3.9661    0.3742 C.3       12 UNK         0.0378 
      9 C9         31.5143   -2.9943   -0.7304 C.ar      12 UNK        -0.0802 
     10 C10        32.6162   -3.2726   -1.5469 C.ar      12 UNK        -0.0944 
     11 C11        32.9799   -2.3946   -2.5730 C.ar      12 UNK        -0.0787 
     12 C12        32.2325   -1.2330   -2.7804 C.ar      12 UNK        -0.0862 
     13 C13        31.1316   -0.9425   -1.9721 C.ar      12 UNK        -0.0733 
     14 C14        30.7860   -1.8174   -0.9368 C.ar      12 UNK        -0.0832 
     15 C15        30.2773    0.2793   -2.2671 C.3       12 UNK         0.0240 
     16 S16        28.8557   -0.2455   -3.2583 S.3       12 UNK        -0.2522 
     17 C17        28.0311    1.3052   -3.7379 C.3       12 UNK        -0.0967 
     18 CA         27.7762    1.3813   -5.2676 C.3       5 UNK         0.0660 
     19 N          27.3064    0.1175   -5.8471 N.am      5 UNK        -0.4015 
     20 C          27.3068   -0.1839   -7.1516 C.2       4 UNK         0.4946 
     21 O          27.7566    0.5665   -8.0196 O.2       4 UNK        -0.5353 
     22 CA         26.7110   -1.5395   -7.5674 C.3       4 UNK         0.0277 
     23 CB         27.8124   -2.5293   -7.9670 C.3       4 UNK        -0.1981 
     24 N          25.8666   -2.1315   -6.5248 N.am      4 UNK        -0.4209 
     25 C          24.5913   -1.7666   -6.3293 C.2       3 UNK         0.4942 
     26 O          24.0100   -0.9229   -7.0132 O.2       3 UNK        -0.5208 
     27 CA         23.8533   -2.4193   -5.1501 C.3       3 UNK         0.0250 
     28 CB         23.5650   -3.9025   -5.4343 C.3       3 UNK        -0.1990 
     29 N          24.5565   -2.2942   -3.8709 N.am      3 UNK        -0.4232 
     30 C          24.9459   -1.1509   -3.2925 C.2       2 UNK         0.4993 
     31 O          24.8255   -0.0418   -3.8135 O.2       2 UNK        -0.5286 
     32 CA         25.6137   -1.2524   -1.9122 C.3       2 UNK         0.0209 
     33 CB         24.5699   -1.3918   -0.7868 C.3       2 UNK        -0.1931 
     34 N          26.6584   -2.2828   -1.8382 N.am      2 UNK        -0.4546 
     35 C          26.5349   -3.6180   -1.8292 C.2       1 UNK         0.5154 
     36 O          25.4576   -4.2140   -1.8693 O.2       1 UNK        -0.5181 
     37 C          26.7840    2.5077   -5.6041 C.2       5 UNK         0.5014 
     38 O          27.2003    3.5654   -6.0750 O.2       5 UNK        -0.5248 
     39 N          25.4828    2.2300   -5.4228 N.am      6 UNK        -0.4434 
     40 CA         24.3676    3.0991   -5.8115 C.3       6 UNK         0.0363 
     41 CB         23.0534    2.4923   -5.2956 C.3       6 UNK        -0.1936 
     42 C          24.2870    3.3440   -7.3297 C.2       6 UNK         0.5081 
     43 O          23.8617    4.4207   -7.7477 O.2       6 UNK        -0.5248 
     44 N          24.7296    2.3596   -8.1245 N.am      7 UNK        -0.4718 
     45 CA         24.8748    2.4566   -9.5802 C.3       7 UNK         0.0273 
     46 CB         24.8782    1.0378  -10.1742 C.3       7 UNK        -0.1935 
     47 C          26.1359    3.2279  -10.0231 C.2       7 UNK         0.5018 
     48 O          26.2978    3.4529  -11.2229 O.2       7 UNK        -0.5186 
     49 N          27.0090    3.5946   -9.0702 N.am      8 UNK        -0.4240 
     50 CA         28.2982    4.2781   -9.2388 C.3       8 UNK         0.0235 
     51 CB         28.1107    5.6830   -9.8513 C.3       8 UNK        -0.2000 
     52 C          29.3626    3.4408   -9.9769 C.2       8 UNK         0.4941 
     53 O          30.3266    4.0088  -10.4939 O.2       8 UNK        -0.5273 
     54 N          29.1920    2.1126   -9.9958 N.am      9 UNK        -0.4262 
     55 CA         30.1481    1.1563  -10.5550 C.3       9 UNK         0.0264 
     56 CB         29.3791   -0.0025  -11.2103 C.3       9 UNK        -0.1955 
     57 C          31.1046    0.6293   -9.4746 C.2       9 UNK         0.5031 
     58 O          32.2834    0.4135   -9.7650 O.2       9 UNK        -0.5390 
     59 N          30.5811    0.4368   -8.2528 N.am      10 UNK        -0.4204 
     60 CA         31.2607   -0.1162   -7.0763 C.3       10 UNK         0.0237 
     61 CB         32.2812    0.9035   -6.5207 C.3       10 UNK        -0.1985 
     62 C          31.8428   -1.5143   -7.3754 C.2       10 UNK         0.4970 
     63 O          31.1409   -2.3358   -7.9668 O.2       10 UNK        -0.4914 
     64 N          33.0980   -1.7576   -6.9842 N.am      11 UNK        -0.4285 
     65 CA         33.8608   -2.9677   -7.3345 C.3       11 UNK         0.1007 
     66 C          34.6714   -2.8202   -8.6582 C.2       11 UNK         0.5703 
     67 N          34.4900   -1.7665   -9.4480 N.am      11 UNK        -0.7361 
     68 O          35.4759   -3.6881   -8.9894 O.2       11 UNK        -0.4986 
     69 C69        34.7386   -3.4578   -6.1500 C.3       12 UNK        -0.0947 
     70 S70        33.7210   -3.9545   -4.7189 S.3       12 UNK        -0.2240 
     71 C71        34.1642   -2.7038   -3.4752 C.3       12 UNK         0.0194 
     72 H72        30.8202   -3.3645   -4.2498 H         1 UNK         0.0906 
     73 H73        30.0699   -3.9773   -5.7203 H         1 UNK         0.0906 
     74 H74        29.8177   -2.2980   -5.2284 H         1 UNK         0.0906 
     75 H75        29.7697   -3.7779   -2.3727 H         1 UNK         0.3140 
     76 H76        27.6138   -5.4339   -2.1238 H         1 UNK         0.1085 
     77 H77        27.7190   -5.0119    0.2787 H         1 UNK         0.0836 
     78 H78        28.4934   -3.4722    0.0602 H         1 UNK         0.0836 
     79 H79        32.0191   -4.4136    0.7997 H         1 UNK         0.0731 
     80 H80        30.6317   -3.4400    1.1965 H         1 UNK         0.0731 
     81 H81        33.1840   -4.1806   -1.3940 H         1 UNK         0.1312 
     82 H82        32.4947   -0.5633   -3.5860 H         1 UNK         0.1406 
     83 H83        29.9326   -1.5922   -0.3122 H         1 UNK         0.1631 
     84 H84        30.8506    1.0324   -2.8102 H         1 UNK         0.0717 
     85 H85        29.9349    0.7423   -1.3404 H         1 UNK         0.0717 
     86 H86        27.0981    1.3681   -3.1757 H         1 UNK         0.0934 
     87 H87        28.6321    2.1574   -3.4153 H         1 UNK         0.0934 
     88 H88        28.7267    1.6251   -5.7476 H         1 UNK         0.0739 
     89 H89        26.9179   -0.5502   -5.1979 H         1 UNK         0.3093 
     90 H90        26.1001   -1.3623   -8.4544 H         1 UNK         0.0818 
     91 H91        28.4426   -2.1214   -8.7576 H         1 UNK         0.0819 
     92 H92        28.4633   -2.7692   -7.1302 H         1 UNK         0.0819 
     93 H93        27.3908   -3.4628   -8.3394 H         1 UNK         0.0819 
     94 H94        26.2943   -2.8194   -5.9099 H         1 UNK         0.3041 
     95 H95        22.8971   -1.9034   -5.0416 H         1 UNK         0.0784 
     96 H96        23.0446   -4.0255   -6.3853 H         1 UNK         0.0793 
     97 H97        24.4820   -4.4915   -5.4833 H         1 UNK         0.0793 
     98 H98        22.9310   -4.3370   -4.6611 H         1 UNK         0.0793 
     99 H99        24.7310   -3.1508   -3.3533 H         1 UNK         0.3024 
    100 H100       26.1273   -0.3045   -1.7473 H         1 UNK         0.1171 
    101 H101       25.0457   -1.4193    0.1935 H         1 UNK         0.0786 
    102 H102       23.8841   -0.5435   -0.7902 H         1 UNK         0.0786 
    103 H103       23.9648   -2.2925   -0.8920 H         1 UNK         0.0786 
    104 H104       27.6025   -1.9230   -1.8966 H         1 UNK         0.2977 
    105 H105       25.2298    1.3474   -4.9796 H         1 UNK         0.3127 
    106 H106       24.5155    4.0671   -5.3284 H         1 UNK         0.0770 
    107 H107       22.8715    1.5053   -5.7238 H         1 UNK         0.0814 
    108 H108       22.2021    3.1241   -5.5525 H         1 UNK         0.0814 
    109 H109       23.0645    2.3872   -4.2105 H         1 UNK         0.0814 
    110 H110       25.0260    1.4948   -7.6937 H         1 UNK         0.2983 
    111 H111       24.0103    2.9916   -9.9795 H         1 UNK         0.0947 
    112 H112       24.8384    1.0731  -11.2637 H         1 UNK         0.0806 
    113 H113       24.0175    0.4591   -9.8376 H         1 UNK         0.0806 
    114 H114       25.7806    0.4901   -9.9045 H         1 UNK         0.0806 
    115 H115       26.7823    3.3631   -8.1093 H         1 UNK         0.3000 
    116 H116       28.6889    4.4167   -8.2298 H         1 UNK         0.0850 
    117 H117       29.0403    6.2524   -9.8167 H         1 UNK         0.0810 
    118 H118       27.3616    6.2566   -9.3055 H         1 UNK         0.0810 
    119 H119       27.8017    5.6330  -10.8957 H         1 UNK         0.0810 
    120 H120       28.4016    1.7215   -9.4920 H         1 UNK         0.3040 
    121 H121       30.7503    1.6397  -11.3274 H         1 UNK         0.0766 
    122 H122       28.7633    0.3520  -12.0370 H         1 UNK         0.0812 
    123 H123       28.7237   -0.5078  -10.5009 H         1 UNK         0.0812 
    124 H124       30.0652   -0.7492  -11.6125 H         1 UNK         0.0812 
    125 H125       29.5790    0.5830   -8.1513 H         1 UNK         0.3205 
    126 H126       30.4918   -0.2616   -6.3168 H         1 UNK         0.0754 
    127 H127       33.0979    1.0897   -7.2194 H         1 UNK         0.0769 
    128 H128       32.7168    0.5679   -5.5804 H         1 UNK         0.0769 
    129 H129       31.8004    1.8609   -6.3189 H         1 UNK         0.0769 
    130 H130       33.6198   -1.0211   -6.5344 H         1 UNK         0.2981 
    131 H131       33.1546   -3.7732   -7.5441 H         1 UNK         0.0541 
    132 H132       33.7880   -1.0655   -9.2461 H         1 UNK         0.3459 
    133 H133       35.0250   -1.7001  -10.2990 H         1 UNK         0.3459 
    134 H134       35.3204   -4.3349   -6.4386 H         1 UNK         0.0612 
    135 H135       35.4646   -2.6959   -5.8626 H         1 UNK         0.0612 
    136 H136       34.5034   -1.7905   -3.9660 H         1 UNK         0.0624 
    137 H137       35.0044   -3.0670   -2.8819 H         1 UNK         0.0624 
@<TRIPOS>BOND
     1    1    2 1    
     2    1   72 1    
     3    1   73 1    
     4    1   74 1    
     5    2    3 2    
     6    2    4 am   BACKBONE|DICT|INTERRES
     7    4    5 1    
     8    4   75 1    
     9    5    6 1    
    10    5   35 1    
    11    5   76 1    
    12    6    7 1    
    13    6   77 1    
    14    6   78 1    
    15    7    8 1    
    16    8    9 1    
    17    8   79 1    
    18    8   80 1    
    19    9   10 ar   
    20    9   14 ar   
    21   10   11 ar   
    22   10   81 1    
    23   11   12 ar   
    24   11   71 1    
    25   12   13 ar   
    26   12   82 1    
    27   13   14 ar   
    28   13   15 1    
    29   14   83 1    
    30   15   16 1    
    31   15   84 1    
    32   15   85 1    
    33   16   17 1    
    34   17   18 1    
    35   17   86 1    
    36   17   87 1    
    37   18   19 1    
    38   18   37 1    
    39   18   88 1    
    40   19   20 am   BACKBONE|DICT|INTERRES
    41   19   89 1    
    42   20   21 2    
    43   20   22 1    
    44   22   23 1    
    45   22   24 1    
    46   22   90 1    
    47   23   91 1    
    48   23   92 1    
    49   23   93 1    
    50   24   25 am   BACKBONE|DICT|INTERRES
    51   24   94 1    
    52   25   26 2    
    53   25   27 1    
    54   27   28 1    
    55   27   29 1    
    56   27   95 1    
    57   28   96 1    
    58   28   97 1    
    59   28   98 1    
    60   29   30 am   BACKBONE|DICT|INTERRES
    61   29   99 1    
    62   30   31 2    
    63   30   32 1    
    64   32   33 1    
    65   32   34 1    
    66   32  100 1    
    67   33  101 1    
    68   33  102 1    
    69   33  103 1    
    70   34   35 am   BACKBONE|DICT|INTERRES
    71   34  104 1    
    72   35   36 2    
    73   37   38 2    
    74   37   39 am   BACKBONE|DICT|INTERRES
    75   39   40 1    
    76   39  105 1    
    77   40   41 1    
    78   40   42 1    
    79   40  106 1    
    80   41  107 1    
    81   41  108 1    
    82   41  109 1    
    83   42   43 2    
    84   42   44 am   BACKBONE|DICT|INTERRES
    85   44   45 1    
    86   44  110 1    
    87   45   46 1    
    88   45   47 1    
    89   45  111 1    
    90   46  112 1    
    91   46  113 1    
    92   46  114 1    
    93   47   48 2    
    94   47   49 am   BACKBONE|DICT|INTERRES
    95   49   50 1    
    96   49  115 1    
    97   50   51 1    
    98   50   52 1    
    99   50  116 1    
   100   51  117 1    
   101   51  118 1    
   102   51  119 1    
   103   52   53 2    
   104   52   54 am   BACKBONE|DICT|INTERRES
   105   54   55 1    
   106   54  120 1    
   107   55   56 1    
   108   55   57 1    
   109   55  121 1    
   110   56  122 1    
   111   56  123 1    
   112   56  124 1    
   113   57   58 2    
   114   57   59 am   BACKBONE|DICT|INTERRES
   115   59   60 1    
   116   59  125 1    
   117   60   61 1    
   118   60   62 1    
   119   60  126 1    
   120   61  127 1    
   121   61  128 1    
   122   61  129 1    
   123   62   63 2    
   124   62   64 am   BACKBONE|DICT|INTERRES
   125   64   65 1    
   126   64  130 1    
   127   65   66 1    
   128   65   69 1    
   129   65  131 1    
   130   66   67 am   BACKBONE|DICT|INTERRES
   131   66   68 2    
   132   67  132 1    
   133   67  133 1    
   134   69   70 1    
   135   69  134 1    
   136   69  135 1    
   137   70   71 1    
   138   71  136 1    
   139   71  137 1    
@<TRIPOS>SUBSTRUCTURE
     1 UNK         1 GROUP             0       ****    0 ROOT    
