@<TRIPOS>MOLECULE
3R137
137   139    1
SMALL
USER_CHARGES


@<TRIPOS>ATOM
      1 CA         26.0722   -2.3865   -0.7363 C.3       0 UNK        -0.2020 
      2 C          26.9717   -3.4287   -1.3810 C.2       0 UNK         0.4855 
      3 O          26.9274   -4.5981   -0.9977 O.2       0 UNK        -0.5197 
      4 N          27.7693   -3.0217   -2.3776 N.am      1 UNK        -0.4892 
      5 CA         28.7039   -3.8328   -3.1777 C.3       1 UNK         0.0835 
      6 C6         29.7492   -4.6062   -2.3233 C.3       12 UNK        -0.0855 
      7 S7         31.4117   -4.5904   -3.0757 S.3       12 UNK        -0.2931 
      8 C8         32.3255   -3.4518   -1.9839 C.3       12 UNK         0.0378 
      9 C9         31.9680   -1.9871   -2.2138 C.ar      12 UNK        -0.0802 
     10 C10        32.7351   -1.1997   -3.0804 C.ar      12 UNK        -0.0944 
     11 C11        32.4594    0.1634   -3.2362 C.ar      12 UNK        -0.0787 
     12 C12        31.3996    0.7353   -2.5248 C.ar      12 UNK        -0.0862 
     13 C13        30.6248   -0.0397   -1.6568 C.ar      12 UNK        -0.0733 
     14 C14        30.9133   -1.3994   -1.5081 C.ar      12 UNK        -0.0832 
     15 C15        29.5139    0.5940   -0.8315 C.3       12 UNK         0.0240 
     16 S16        27.9213    0.5969   -1.7100 S.3       12 UNK        -0.2522 
     17 C17        27.9647    2.2047   -2.5740 C.3       12 UNK        -0.0967 
     18 CA         27.4081    2.1132   -4.0151 C.3       5 UNK         0.0660 
     19 N          26.0293    1.5985   -4.0291 N.am      5 UNK        -0.4015 
     20 C          25.3208    1.2565   -5.1128 C.2       4 UNK         0.4946 
     21 O          25.6912    1.4485   -6.2713 O.2       4 UNK        -0.5353 
     22 CA         23.9446    0.6195   -4.8625 C.3       4 UNK         0.0277 
     23 CB         22.8220    1.5244   -5.3978 C.3       4 UNK        -0.1981 
     24 N          23.8519   -0.6995   -5.4919 N.am      4 UNK        -0.4209 
     25 C          24.5850   -1.7581   -5.1256 C.2       3 UNK         0.4942 
     26 O          25.3820   -1.7462   -4.1806 O.2       3 UNK        -0.5208 
     27 CA         24.3977   -3.0455   -5.9417 C.3       3 UNK         0.0250 
     28 CB         24.9989   -2.9027   -7.3554 C.3       3 UNK        -0.1990 
     29 N          25.0717   -4.1036   -5.2018 N.am      3 UNK        -0.4232 
     30 C          25.0955   -5.4190   -5.4350 C.2       2 UNK         0.4993 
     31 O          24.4563   -5.9665   -6.3349 O.2       2 UNK        -0.5286 
     32 CA         25.9705   -6.2669   -4.4834 C.3       2 UNK         0.0209 
     33 CB         26.6546   -7.4475   -5.2051 C.3       2 UNK        -0.1931 
     34 N          26.9485   -5.4732   -3.7180 N.am      2 UNK        -0.4546 
     35 C          27.9756   -4.7477   -4.1899 C.2       1 UNK         0.5154 
     36 O          28.3041   -4.7322   -5.3750 O.2       1 UNK        -0.5181 
     37 C          27.6043    3.4551   -4.7574 C.2       5 UNK         0.5014 
     38 O          28.7459    3.8250   -5.0348 O.2       5 UNK        -0.5248 
     39 N          26.5074    4.1609   -5.0685 N.am      6 UNK        -0.4434 
     40 CA         26.4908    5.3487   -5.9230 C.3       6 UNK         0.0363 
     41 CB         25.1153    6.0269   -5.8164 C.3       6 UNK        -0.1936 
     42 C          26.8260    5.0405   -7.3957 C.2       6 UNK         0.5081 
     43 O          27.3122    5.9320   -8.0928 O.2       6 UNK        -0.5248 
     44 N          26.5691    3.8047   -7.8485 N.am      7 UNK        -0.4718 
     45 CA         26.9489    3.3217   -9.1729 C.3       7 UNK         0.0273 
     46 CB         25.9152    2.2890   -9.6536 C.3       7 UNK        -0.1935 
     47 C          28.3421    2.6873   -9.0916 C.2       7 UNK         0.5018 
     48 O          28.5633    1.8175   -8.2467 O.2       7 UNK        -0.5186 
     49 N          29.2423    3.0835  -10.0026 N.am      8 UNK        -0.4240 
     50 CA         30.6213    2.5813  -10.0906 C.3       8 UNK         0.0235 
     51 CB         31.3744    3.3444  -11.1918 C.3       8 UNK        -0.2000 
     52 C          30.7258    1.0621  -10.3207 C.2       8 UNK         0.4941 
     53 O          31.7126    0.4561   -9.9046 O.2       8 UNK        -0.5273 
     54 N          29.6882    0.4692  -10.9300 N.am      9 UNK        -0.4262 
     55 CA         29.5237   -0.9724  -11.1290 C.3       9 UNK         0.0264 
     56 CB         28.2442   -1.2265  -11.9423 C.3       9 UNK        -0.1955 
     57 C          29.4986   -1.7897   -9.8232 C.2       9 UNK         0.5031 
     58 O          29.9028   -2.9529   -9.8473 O.2       9 UNK        -0.5390 
     59 N          29.0667   -1.1781   -8.7081 N.am      10 UNK        -0.4204 
     60 CA         29.0956   -1.7905   -7.3761 C.3       10 UNK         0.0237 
     61 CB         28.2721   -0.9333   -6.4034 C.3       10 UNK        -0.1985 
     62 C          30.5240   -1.9774   -6.8344 C.2       10 UNK         0.4970 
     63 O          30.7442   -2.8707   -6.0209 O.2       10 UNK        -0.4914 
     64 N          31.4679   -1.1479   -7.2939 N.am      11 UNK        -0.4285 
     65 CA         32.8820   -1.2057   -6.9037 C.3       11 UNK         0.1007 
     66 C          33.7316   -2.1749   -7.7765 C.2       11 UNK         0.5703 
     67 N          33.1683   -2.8575   -8.7679 N.am      11 UNK        -0.7361 
     68 O          34.9277   -2.3258   -7.5386 O.2       11 UNK        -0.4986 
     69 C69        33.5115    0.2089   -6.8270 C.3       12 UNK        -0.0947 
     70 S70        32.5856    1.3544   -5.7461 S.3       12 UNK        -0.2240 
     71 C71        33.3381    1.0420   -4.1177 C.3       12 UNK         0.0194 
     72 H72        26.5626   -1.9514    0.1340 H         1 UNK         0.0906 
     73 H73        25.8284   -1.5849   -1.4332 H         1 UNK         0.0906 
     74 H74        25.1361   -2.8400   -0.4117 H         1 UNK         0.0906 
     75 H75        27.7042   -2.0533   -2.6659 H         1 UNK         0.3140 
     76 H76        29.2406   -3.0933   -3.7752 H         1 UNK         0.1085 
     77 H77        29.4472   -5.6427   -2.1601 H         1 UNK         0.0836 
     78 H78        29.8203   -4.1810   -1.3225 H         1 UNK         0.0836 
     79 H79        33.3931   -3.5971   -2.1556 H         1 UNK         0.0731 
     80 H80        32.1551   -3.7246   -0.9412 H         1 UNK         0.0731 
     81 H81        33.5656   -1.6437   -3.6115 H         1 UNK         0.1312 
     82 H82        31.1964    1.7915   -2.6324 H         1 UNK         0.1406 
     83 H83        30.3283   -1.9937   -0.8205 H         1 UNK         0.1631 
     84 H84        29.7854    1.6092   -0.5381 H         1 UNK         0.0717 
     85 H85        29.3885    0.0411    0.1007 H         1 UNK         0.0717 
     86 H86        27.3957    2.9271   -1.9855 H         1 UNK         0.0934 
     87 H87        28.9915    2.5729   -2.5906 H         1 UNK         0.0934 
     88 H88        28.0156    1.3859   -4.5543 H         1 UNK         0.0739 
     89 H89        25.6450    1.3873   -3.1195 H         1 UNK         0.3093 
     90 H90        23.7977    0.4905   -3.7878 H         1 UNK         0.0818 
     91 H91        22.9037    1.6760   -6.4753 H         1 UNK         0.0819 
     92 H92        21.8384    1.1019   -5.1918 H         1 UNK         0.0819 
     93 H93        22.8552    2.5082   -4.9279 H         1 UNK         0.0819 
     94 H94        23.2444   -0.7770   -6.2944 H         1 UNK         0.3041 
     95 H95        23.3322   -3.2743   -6.0035 H         1 UNK         0.0784 
     96 H96        24.5840   -2.0437   -7.8838 H         1 UNK         0.0793 
     97 H97        26.0806   -2.7746   -7.3187 H         1 UNK         0.0793 
     98 H98        24.7926   -3.7817   -7.9658 H         1 UNK         0.0793 
     99 H99        25.6050   -3.7394   -4.4201 H         1 UNK         0.3024 
    100 H100       25.2823   -6.6867   -3.7479 H         1 UNK         0.1171 
    101 H101       27.2628   -8.0347   -4.5171 H         1 UNK         0.0786 
    102 H102       25.9153   -8.1222   -5.6384 H         1 UNK         0.0786 
    103 H103       27.2977   -7.1092   -6.0179 H         1 UNK         0.0786 
    104 H104       26.7699   -5.3883   -2.7191 H         1 UNK         0.2977 
    105 H105       25.6113    3.7846   -4.7975 H         1 UNK         0.3127 
    106 H106       27.2469    6.0440   -5.5519 H         1 UNK         0.0770 
    107 H107       24.3143    5.3732   -6.1640 H         1 UNK         0.0814 
    108 H108       25.0809    6.9338   -6.4220 H         1 UNK         0.0814 
    109 H109       24.8930    6.3172   -4.7894 H         1 UNK         0.0814 
    110 H110       26.2429    3.0913   -7.2005 H         1 UNK         0.2983 
    111 H111       26.9614    4.1507   -9.8841 H         1 UNK         0.0947 
    112 H112       25.8742    1.4201   -8.9949 H         1 UNK         0.0806 
    113 H113       26.1575    1.9287  -10.6540 H         1 UNK         0.0806 
    114 H114       24.9153    2.7208   -9.6968 H         1 UNK         0.0806 
    115 H115       28.9805    3.7986  -10.6666 H         1 UNK         0.3000 
    116 H116       31.1057    2.7918   -9.1343 H         1 UNK         0.0850 
    117 H117       31.3989    4.4152  -10.9884 H         1 UNK         0.0810 
    118 H118       30.9176    3.1971  -12.1712 H         1 UNK         0.0810 
    119 H119       32.4098    3.0071  -11.2612 H         1 UNK         0.0810 
    120 H120       28.9295    1.0571  -11.2416 H         1 UNK         0.3040 
    121 H121       30.3782   -1.3205  -11.7131 H         1 UNK         0.0766 
    122 H122       28.1070   -2.2925  -12.1300 H         1 UNK         0.0812 
    123 H123       28.2845   -0.7322  -12.9132 H         1 UNK         0.0812 
    124 H124       27.3553   -0.8713  -11.4191 H         1 UNK         0.0812 
    125 H125       28.7888   -0.2020   -8.7482 H         1 UNK         0.3205 
    126 H126       28.6323   -2.7772   -7.4440 H         1 UNK         0.0754 
    127 H127       28.1781   -1.4197   -5.4318 H         1 UNK         0.0769 
    128 H128       27.2643   -0.7546   -6.7771 H         1 UNK         0.0769 
    129 H129       28.7419    0.0367   -6.2418 H         1 UNK         0.0769 
    130 H130       31.2392   -0.4672   -8.0071 H         1 UNK         0.2981 
    131 H131       32.9369   -1.6217   -5.8978 H         1 UNK         0.0541 
    132 H132       32.1837   -2.7575   -8.9667 H         1 UNK         0.3459 
    133 H133       33.7333   -3.4847   -9.3176 H         1 UNK         0.3459 
    134 H134       34.5462    0.1571   -6.4848 H         1 UNK         0.0612 
    135 H135       33.5492    0.6540   -7.8227 H         1 UNK         0.0612 
    136 H136       34.3298    0.6022   -4.2307 H         1 UNK         0.0624 
    137 H137       33.4945    2.0020   -3.6236 H         1 UNK         0.0624 
@<TRIPOS>BOND
     1    1    2 1    
     2    1   72 1    
     3    1   73 1    
     4    1   74 1    
     5    2    3 2    
     6    2    4 am   BACKBONE|DICT|INTERRES
     7    4    5 1    
     8    4   75 1    
     9    5    6 1    
    10    5   35 1    
    11    5   76 1    
    12    6    7 1    
    13    6   77 1    
    14    6   78 1    
    15    7    8 1    
    16    8    9 1    
    17    8   79 1    
    18    8   80 1    
    19    9   10 ar   
    20    9   14 ar   
    21   10   11 ar   
    22   10   81 1    
    23   11   12 ar   
    24   11   71 1    
    25   12   13 ar   
    26   12   82 1    
    27   13   14 ar   
    28   13   15 1    
    29   14   83 1    
    30   15   16 1    
    31   15   84 1    
    32   15   85 1    
    33   16   17 1    
    34   17   18 1    
    35   17   86 1    
    36   17   87 1    
    37   18   19 1    
    38   18   37 1    
    39   18   88 1    
    40   19   20 am   BACKBONE|DICT|INTERRES
    41   19   89 1    
    42   20   21 2    
    43   20   22 1    
    44   22   23 1    
    45   22   24 1    
    46   22   90 1    
    47   23   91 1    
    48   23   92 1    
    49   23   93 1    
    50   24   25 am   BACKBONE|DICT|INTERRES
    51   24   94 1    
    52   25   26 2    
    53   25   27 1    
    54   27   28 1    
    55   27   29 1    
    56   27   95 1    
    57   28   96 1    
    58   28   97 1    
    59   28   98 1    
    60   29   30 am   BACKBONE|DICT|INTERRES
    61   29   99 1    
    62   30   31 2    
    63   30   32 1    
    64   32   33 1    
    65   32   34 1    
    66   32  100 1    
    67   33  101 1    
    68   33  102 1    
    69   33  103 1    
    70   34   35 am   BACKBONE|DICT|INTERRES
    71   34  104 1    
    72   35   36 2    
    73   37   38 2    
    74   37   39 am   BACKBONE|DICT|INTERRES
    75   39   40 1    
    76   39  105 1    
    77   40   41 1    
    78   40   42 1    
    79   40  106 1    
    80   41  107 1    
    81   41  108 1    
    82   41  109 1    
    83   42   43 2    
    84   42   44 am   BACKBONE|DICT|INTERRES
    85   44   45 1    
    86   44  110 1    
    87   45   46 1    
    88   45   47 1    
    89   45  111 1    
    90   46  112 1    
    91   46  113 1    
    92   46  114 1    
    93   47   48 2    
    94   47   49 am   BACKBONE|DICT|INTERRES
    95   49   50 1    
    96   49  115 1    
    97   50   51 1    
    98   50   52 1    
    99   50  116 1    
   100   51  117 1    
   101   51  118 1    
   102   51  119 1    
   103   52   53 2    
   104   52   54 am   BACKBONE|DICT|INTERRES
   105   54   55 1    
   106   54  120 1    
   107   55   56 1    
   108   55   57 1    
   109   55  121 1    
   110   56  122 1    
   111   56  123 1    
   112   56  124 1    
   113   57   58 2    
   114   57   59 am   BACKBONE|DICT|INTERRES
   115   59   60 1    
   116   59  125 1    
   117   60   61 1    
   118   60   62 1    
   119   60  126 1    
   120   61  127 1    
   121   61  128 1    
   122   61  129 1    
   123   62   63 2    
   124   62   64 am   BACKBONE|DICT|INTERRES
   125   64   65 1    
   126   64  130 1    
   127   65   66 1    
   128   65   69 1    
   129   65  131 1    
   130   66   67 am   BACKBONE|DICT|INTERRES
   131   66   68 2    
   132   67  132 1    
   133   67  133 1    
   134   69   70 1    
   135   69  134 1    
   136   69  135 1    
   137   70   71 1    
   138   71  136 1    
   139   71  137 1    
@<TRIPOS>SUBSTRUCTURE
     1 UNK         1 GROUP             0       ****    0 ROOT    
