@<TRIPOS>MOLECULE
3R137
137   139    1
SMALL
USER_CHARGES


@<TRIPOS>ATOM
      1 CA         25.6844   -6.3821   -5.2022 C.3       0 UNK        -0.2020 
      2 C          25.6264   -5.6619   -3.8641 C.2       0 UNK         0.4855 
      3 O          24.5533   -5.2241   -3.4477 O.2       0 UNK        -0.5197 
      4 N          26.7768   -5.5249   -3.1940 N.am      1 UNK        -0.4892 
      5 CA         26.9658   -4.8251   -1.9182 C.3       1 UNK         0.0835 
      6 C6         28.4044   -4.9964   -1.3531 C.3       12 UNK        -0.0855 
      7 S7         29.7352   -5.0300   -2.6108 S.3       12 UNK        -0.2931 
      8 C8         31.0515   -4.0616   -1.8136 C.3       12 UNK         0.0378 
      9 C9         30.9940   -2.5918   -2.2004 C.ar      12 UNK        -0.0802 
     10 C10        31.4638   -2.1880   -3.4531 C.ar      12 UNK        -0.0944 
     11 C11        31.4900   -0.8354   -3.7992 C.ar      12 UNK        -0.0787 
     12 C12        31.0525    0.1182   -2.8773 C.ar      12 UNK        -0.0862 
     13 C13        30.5255   -0.2737   -1.6416 C.ar      12 UNK        -0.0733 
     14 C14        30.5079   -1.6328   -1.3060 C.ar      12 UNK        -0.0832 
     15 C15        29.9768    0.7602   -0.6599 C.3       12 UNK         0.0240 
     16 S16        28.8826    2.0091   -1.4287 S.3       12 UNK        -0.2522 
     17 C17        27.6546    0.9724   -2.2921 C.3       12 UNK        -0.0967 
     18 CA         27.8509    1.0082   -3.8328 C.3       5 UNK         0.0660 
     19 N          27.6261   -0.3030   -4.4439 N.am      5 UNK        -0.4015 
     20 C          27.8776   -0.6142   -5.7233 C.2       4 UNK         0.4946 
     21 O          28.3959    0.1551   -6.5322 O.2       4 UNK        -0.5353 
     22 CA         27.4050   -1.9978   -6.1956 C.3       4 UNK         0.0277 
     23 CB         28.4318   -3.0853   -5.8427 C.3       4 UNK        -0.1981 
     24 N          26.0941   -2.3342   -5.6328 N.am      4 UNK        -0.4209 
     25 C          24.9513   -1.7230   -5.9821 C.2       3 UNK         0.4942 
     26 O          24.8749   -0.8798   -6.8745 O.2       3 UNK        -0.5208 
     27 CA         23.6917   -2.0658   -5.1697 C.3       3 UNK         0.0250 
     28 CB         22.9681   -3.2835   -5.7646 C.3       3 UNK        -0.1990 
     29 N          23.9851   -2.2917   -3.7514 N.am      3 UNK        -0.4232 
     30 C          24.3464   -1.3132   -2.9059 C.2       2 UNK         0.4993 
     31 O          24.4231   -0.1298   -3.2315 O.2       2 UNK        -0.5286 
     32 CA         24.7427   -1.7118   -1.4737 C.3       2 UNK         0.0209 
     33 CB         23.5154   -1.6875   -0.5495 C.3       2 UNK        -0.1931 
     34 N          25.3943   -3.0210   -1.3896 N.am      2 UNK        -0.4546 
     35 C          26.5316   -3.3492   -2.0182 C.2       1 UNK         0.5154 
     36 O          27.1783   -2.5567   -2.7047 O.2       1 UNK        -0.5181 
     37 C          27.0205    2.1225   -4.5042 C.2       5 UNK         0.5014 
     38 O          27.5646    3.1878   -4.7975 O.2       5 UNK        -0.5248 
     39 N          25.7336    1.8475   -4.7657 N.am      6 UNK        -0.4434 
     40 CA         24.8190    2.7336   -5.4895 C.3       6 UNK         0.0363 
     41 CB         23.3837    2.1937   -5.3869 C.3       6 UNK        -0.1936 
     42 C          25.2160    2.9396   -6.9615 C.2       6 UNK         0.5081 
     43 O          25.1215    4.0641   -7.4547 O.2       6 UNK        -0.5248 
     44 N          25.6581    1.8659   -7.6340 N.am      7 UNK        -0.4718 
     45 CA         26.1761    1.9066   -9.0055 C.3       7 UNK         0.0273 
     46 CB         26.3339    0.4762   -9.5454 C.3       7 UNK        -0.1935 
     47 C          27.5038    2.6738   -9.1188 C.2       7 UNK         0.5018 
     48 O          27.7164    3.3624  -10.1175 O.2       7 UNK        -0.5186 
     49 N          28.3704    2.5306   -8.1048 N.am      8 UNK        -0.4240 
     50 CA         29.6662    3.1875   -7.8793 C.3       8 UNK         0.0235 
     51 CB         29.5123    4.7174   -7.7857 C.3       8 UNK        -0.2000 
     52 C          30.7750    2.7992   -8.8730 C.2       8 UNK         0.4941 
     53 O          31.9164    2.6155   -8.4523 O.2       8 UNK        -0.5273 
     54 N          30.4337    2.6624  -10.1599 N.am      9 UNK        -0.4262 
     55 CA         31.3237    2.1978  -11.2268 C.3       9 UNK         0.0264 
     56 CB         30.6951    2.5327  -12.5888 C.3       9 UNK        -0.1955 
     57 C          31.6367    0.6937  -11.1345 C.2       9 UNK         0.5031 
     58 O          32.6894    0.2647  -11.6092 O.2       9 UNK        -0.5390 
     59 N          30.7352   -0.0812  -10.5155 N.am      10 UNK        -0.4204 
     60 CA         30.8560   -1.5221  -10.2818 C.3       10 UNK         0.0237 
     61 CB         29.4409   -2.1112  -10.1177 C.3       10 UNK        -0.1985 
     62 C          31.7638   -1.8235   -9.0724 C.2       10 UNK         0.4970 
     63 O          31.3231   -2.4699   -8.1216 O.2       10 UNK        -0.4914 
     64 N          33.0050   -1.3320   -9.1215 N.am      11 UNK        -0.4285 
     65 CA         33.9954   -1.4043   -8.0417 C.3       11 UNK         0.1007 
     66 C          35.4223   -1.6738   -8.5880 C.2       11 UNK         0.5703 
     67 N          36.3861   -1.9040   -7.7069 N.am      11 UNK        -0.7361 
     68 O          35.6700   -1.6735   -9.7933 O.2       11 UNK        -0.4986 
     69 C69        33.9222   -0.1415   -7.1296 C.3       12 UNK        -0.0947 
     70 S70        33.7582   -0.5615   -5.3656 S.3       12 UNK        -0.2240 
     71 C71        31.9550   -0.4125   -5.1821 C.3       12 UNK         0.0194 
     72 H72        25.5394   -5.6749   -6.0184 H         1 UNK         0.0906 
     73 H73        26.6411   -6.8823   -5.3522 H         1 UNK         0.0906 
     74 H74        24.8983   -7.1349   -5.2581 H         1 UNK         0.0906 
     75 H75        27.6365   -5.8702   -3.5998 H         1 UNK         0.3140 
     76 H76        26.2934   -5.3071   -1.2050 H         1 UNK         0.1085 
     77 H77        28.6194   -4.2359   -0.5997 H         1 UNK         0.0836 
     78 H78        28.4608   -5.9470   -0.8202 H         1 UNK         0.0836 
     79 H79        32.0145   -4.4701   -2.1234 H         1 UNK         0.0731 
     80 H80        31.0109   -4.1864   -0.7305 H         1 UNK         0.0731 
     81 H81        31.8161   -2.9278   -4.1593 H         1 UNK         0.1312 
     82 H82        31.0837    1.1672   -3.1377 H         1 UNK         0.1406 
     83 H83        30.1249   -1.9454   -0.3442 H         1 UNK         0.1631 
     84 H84        30.8147    1.2725   -0.1857 H         1 UNK         0.0717 
     85 H85        29.4219    0.2697    0.1414 H         1 UNK         0.0717 
     86 H86        27.7502   -0.0465   -1.9146 H         1 UNK         0.0934 
     87 H87        26.6508    1.2887   -2.0009 H         1 UNK         0.0934 
     88 H88        28.8925    1.2442   -4.0519 H         1 UNK         0.0739 
     89 H89        27.2827   -1.0394   -3.8324 H         1 UNK         0.3093 
     90 H90        27.3088   -1.9657   -7.2827 H         1 UNK         0.0818 
     91 H91        28.6049   -3.1554   -4.7691 H         1 UNK         0.0819 
     92 H92        28.1147   -4.0656   -6.1979 H         1 UNK         0.0819 
     93 H93        29.3952   -2.8690   -6.3052 H         1 UNK         0.0819 
     94 H94        26.0863   -2.9638   -4.8434 H         1 UNK         0.3041 
     95 H95        23.0141   -1.2121   -5.2387 H         1 UNK         0.0784 
     96 H96        22.6843   -3.0967   -6.8013 H         1 UNK         0.0793 
     97 H97        23.5933   -4.1753   -5.7563 H         1 UNK         0.0793 
     98 H98        22.0545   -3.5099   -5.2147 H         1 UNK         0.0793 
     99 H99        23.9875   -3.2548   -3.4279 H         1 UNK         0.3024 
    100 H100       25.4551   -0.9654   -1.1161 H         1 UNK         0.1171 
    101 H101       23.7949   -1.8747    0.4875 H         1 UNK         0.0786 
    102 H102       23.0244   -0.7136   -0.5797 H         1 UNK         0.0786 
    103 H103       22.7755   -2.4347   -0.8394 H         1 UNK         0.0786 
    104 H104       24.8963   -3.7384   -0.8816 H         1 UNK         0.2977 
    105 H105       25.3346    0.9842   -4.4015 H         1 UNK         0.3127 
    106 H106       24.8496    3.7092   -4.9999 H         1 UNK         0.0770 
    107 H107       23.2895    1.2096   -5.8466 H         1 UNK         0.0814 
    108 H108       22.6802    2.8580   -5.8904 H         1 UNK         0.0814 
    109 H109       23.0643    2.1098   -4.3480 H         1 UNK         0.0814 
    110 H110       25.6278    0.9564   -7.1826 H         1 UNK         0.2983 
    111 H111       25.4431    2.4267   -9.6260 H         1 UNK         0.0947 
    112 H112       26.7089    0.4817  -10.5698 H         1 UNK         0.0806 
    113 H113       25.3798   -0.0510   -9.5524 H         1 UNK         0.0806 
    114 H114       27.0309   -0.1068   -8.9437 H         1 UNK         0.0806 
    115 H115       28.1331    1.8369   -7.3982 H         1 UNK         0.3000 
    116 H116       29.9939    2.8332   -6.9001 H         1 UNK         0.0850 
    117 H117       30.4588    5.1875   -7.5158 H         1 UNK         0.0810 
    118 H118       28.7836    4.9923   -7.0225 H         1 UNK         0.0810 
    119 H119       29.1903    5.1555   -8.7309 H         1 UNK         0.0810 
    120 H120       29.4730    2.8893  -10.4100 H         1 UNK         0.3040 
    121 H121       32.2696    2.7370  -11.1423 H         1 UNK         0.0766 
    122 H122       30.5354    3.6055  -12.6986 H         1 UNK         0.0812 
    123 H123       29.7338    2.0350  -12.7240 H         1 UNK         0.0812 
    124 H124       31.3445    2.2174  -13.4068 H         1 UNK         0.0812 
    125 H125       29.9258    0.3711  -10.1179 H         1 UNK         0.3205 
    126 H126       31.3142   -1.9866  -11.1577 H         1 UNK         0.0754 
    127 H127       29.4803   -3.1945   -9.9952 H         1 UNK         0.0769 
    128 H128       28.8205   -1.9082  -10.9909 H         1 UNK         0.0769 
    129 H129       28.9342   -1.7032   -9.2421 H         1 UNK         0.0769 
    130 H130       33.3061   -0.8500   -9.9628 H         1 UNK         0.2981 
    131 H131       33.7609   -2.2939   -7.4537 H         1 UNK         0.0541 
    132 H132       36.1933   -1.8934   -6.7170 H         1 UNK         0.3459 
    133 H133       37.3225   -2.0802   -8.0360 H         1 UNK         0.3459 
    134 H134       33.0788    0.4925   -7.4056 H         1 UNK         0.0612 
    135 H135       34.7977    0.5001   -7.2472 H         1 UNK         0.0612 
    136 H136       31.6537    0.6152   -5.3927 H         1 UNK         0.0624 
    137 H137       31.4590   -1.0345   -5.9273 H         1 UNK         0.0624 
@<TRIPOS>BOND
     1    1    2 1    
     2    1   72 1    
     3    1   73 1    
     4    1   74 1    
     5    2    3 2    
     6    2    4 am   BACKBONE|DICT|INTERRES
     7    4    5 1    
     8    4   75 1    
     9    5    6 1    
    10    5   35 1    
    11    5   76 1    
    12    6    7 1    
    13    6   77 1    
    14    6   78 1    
    15    7    8 1    
    16    8    9 1    
    17    8   79 1    
    18    8   80 1    
    19    9   10 ar   
    20    9   14 ar   
    21   10   11 ar   
    22   10   81 1    
    23   11   12 ar   
    24   11   71 1    
    25   12   13 ar   
    26   12   82 1    
    27   13   14 ar   
    28   13   15 1    
    29   14   83 1    
    30   15   16 1    
    31   15   84 1    
    32   15   85 1    
    33   16   17 1    
    34   17   18 1    
    35   17   86 1    
    36   17   87 1    
    37   18   19 1    
    38   18   37 1    
    39   18   88 1    
    40   19   20 am   BACKBONE|DICT|INTERRES
    41   19   89 1    
    42   20   21 2    
    43   20   22 1    
    44   22   23 1    
    45   22   24 1    
    46   22   90 1    
    47   23   91 1    
    48   23   92 1    
    49   23   93 1    
    50   24   25 am   BACKBONE|DICT|INTERRES
    51   24   94 1    
    52   25   26 2    
    53   25   27 1    
    54   27   28 1    
    55   27   29 1    
    56   27   95 1    
    57   28   96 1    
    58   28   97 1    
    59   28   98 1    
    60   29   30 am   BACKBONE|DICT|INTERRES
    61   29   99 1    
    62   30   31 2    
    63   30   32 1    
    64   32   33 1    
    65   32   34 1    
    66   32  100 1    
    67   33  101 1    
    68   33  102 1    
    69   33  103 1    
    70   34   35 am   BACKBONE|DICT|INTERRES
    71   34  104 1    
    72   35   36 2    
    73   37   38 2    
    74   37   39 am   BACKBONE|DICT|INTERRES
    75   39   40 1    
    76   39  105 1    
    77   40   41 1    
    78   40   42 1    
    79   40  106 1    
    80   41  107 1    
    81   41  108 1    
    82   41  109 1    
    83   42   43 2    
    84   42   44 am   BACKBONE|DICT|INTERRES
    85   44   45 1    
    86   44  110 1    
    87   45   46 1    
    88   45   47 1    
    89   45  111 1    
    90   46  112 1    
    91   46  113 1    
    92   46  114 1    
    93   47   48 2    
    94   47   49 am   BACKBONE|DICT|INTERRES
    95   49   50 1    
    96   49  115 1    
    97   50   51 1    
    98   50   52 1    
    99   50  116 1    
   100   51  117 1    
   101   51  118 1    
   102   51  119 1    
   103   52   53 2    
   104   52   54 am   BACKBONE|DICT|INTERRES
   105   54   55 1    
   106   54  120 1    
   107   55   56 1    
   108   55   57 1    
   109   55  121 1    
   110   56  122 1    
   111   56  123 1    
   112   56  124 1    
   113   57   58 2    
   114   57   59 am   BACKBONE|DICT|INTERRES
   115   59   60 1    
   116   59  125 1    
   117   60   61 1    
   118   60   62 1    
   119   60  126 1    
   120   61  127 1    
   121   61  128 1    
   122   61  129 1    
   123   62   63 2    
   124   62   64 am   BACKBONE|DICT|INTERRES
   125   64   65 1    
   126   64  130 1    
   127   65   66 1    
   128   65   69 1    
   129   65  131 1    
   130   66   67 am   BACKBONE|DICT|INTERRES
   131   66   68 2    
   132   67  132 1    
   133   67  133 1    
   134   69   70 1    
   135   69  134 1    
   136   69  135 1    
   137   70   71 1    
   138   71  136 1    
   139   71  137 1    
@<TRIPOS>SUBSTRUCTURE
     1 UNK         1 GROUP             0       ****    0 ROOT    
