@<TRIPOS>MOLECULE
3R137
137   139    1
SMALL
USER_CHARGES


@<TRIPOS>ATOM
      1 CA         26.5993   -7.0368   -4.4601 C.3       0 UNK        -0.2020 
      2 C          26.5434   -5.7562   -3.6422 C.2       0 UNK         0.4855 
      3 O          26.4417   -4.6729   -4.2171 O.2       0 UNK        -0.5197 
      4 N          26.6041   -5.8725   -2.3080 N.am      1 UNK        -0.4892 
      5 CA         26.5788   -4.7672   -1.3372 C.3       1 UNK         0.0835 
      6 C6         27.8773   -3.9111   -1.3713 C.3       12 UNK        -0.0855 
      7 S7         29.4188   -4.8463   -1.0581 S.3       12 UNK        -0.2931 
      8 C8         30.4992   -4.3663   -2.4645 C.3       12 UNK         0.0378 
      9 C9         30.7361   -2.8643   -2.6756 C.ar      12 UNK        -0.0802 
     10 C10        31.3541   -2.4379   -3.8570 C.ar      12 UNK        -0.0944 
     11 C11        31.4951   -1.0745   -4.1447 C.ar      12 UNK        -0.0787 
     12 C12        30.9949   -0.1261   -3.2487 C.ar      12 UNK        -0.0862 
     13 C13        30.3811   -0.5357   -2.0638 C.ar      12 UNK        -0.0733 
     14 C14        30.3122   -1.8959   -1.7593 C.ar      12 UNK        -0.0832 
     15 C15        29.7283    0.4655   -1.1249 C.3       12 UNK         0.0240 
     16 S16        27.9286    0.1706   -1.0495 S.3       12 UNK        -0.2522 
     17 C17        27.2537    1.4451   -2.1625 C.3       12 UNK        -0.0967 
     18 CA         27.6426    1.3273   -3.6612 C.3       5 UNK         0.0660 
     19 N          27.4485   -0.0080   -4.2418 N.am      5 UNK        -0.4015 
     20 C          27.9056   -0.3748   -5.4514 C.2       4 UNK         0.4946 
     21 O          28.5996    0.3470   -6.1672 O.2       4 UNK        -0.5353 
     22 CA         27.4865   -1.7522   -5.9935 C.3       4 UNK         0.0277 
     23 CB         28.5383   -2.8182   -5.6661 C.3       4 UNK        -0.1981 
     24 N          26.1748   -2.1900   -5.5168 N.am      4 UNK        -0.4209 
     25 C          25.0199   -1.5982   -5.8514 C.2       3 UNK         0.4942 
     26 O          24.9413   -0.6420   -6.6222 O.2       3 UNK        -0.5208 
     27 CA         23.7498   -2.1174   -5.1604 C.3       3 UNK         0.0250 
     28 CB         23.3178   -3.4740   -5.7395 C.3       3 UNK        -0.1990 
     29 N          23.9077   -2.2241   -3.7078 N.am      3 UNK        -0.4232 
     30 C          24.1801   -1.2032   -2.8842 C.2       2 UNK         0.4993 
     31 O          24.3160   -0.0395   -3.2633 O.2       2 UNK        -0.5286 
     32 CA         24.3953   -1.5346   -1.3980 C.3       2 UNK         0.0209 
     33 CB         23.0626   -1.8047   -0.6717 C.3       2 UNK        -0.1931 
     34 N          25.3840   -2.6032   -1.1864 N.am      2 UNK        -0.4546 
     35 C          25.2887   -3.9123   -1.4721 C.2       1 UNK         0.5154 
     36 O          24.2430   -4.4423   -1.8585 O.2       1 UNK        -0.5181 
     37 C          26.8819    2.3944   -4.4711 C.2       5 UNK         0.5014 
     38 O          27.4494    3.4440   -4.7757 O.2       5 UNK        -0.5248 
     39 N          25.6156    2.0995   -4.8037 N.am      6 UNK        -0.4434 
     40 CA         24.7495    2.9477   -5.6233 C.3       6 UNK         0.0363 
     41 CB         23.3096    2.4119   -5.5746 C.3       6 UNK        -0.1936 
     42 C          25.2403    3.0707   -7.0754 C.2       6 UNK         0.5081 
     43 O          25.1937    4.1670   -7.6345 O.2       6 UNK        -0.5248 
     44 N          25.7077    1.9557   -7.6556 N.am      7 UNK        -0.4718 
     45 CA         26.2858    1.9060   -9.0003 C.3       7 UNK         0.0273 
     46 CB         26.4350    0.4432   -9.4483 C.3       7 UNK        -0.1935 
     47 C          27.6361    2.6331   -9.0997 C.2       7 UNK         0.5018 
     48 O          27.8823    3.3026  -10.1040 O.2       7 UNK        -0.5186 
     49 N          28.4913    2.4652   -8.0783 N.am      8 UNK        -0.4240 
     50 CA         29.8536    2.9925   -7.9078 C.3       8 UNK         0.0235 
     51 CB         29.8756    4.5328   -7.9040 C.3       8 UNK        -0.2000 
     52 C          30.8759    2.4136   -8.9014 C.2       8 UNK         0.4941 
     53 O          31.9228    1.9253   -8.4765 O.2       8 UNK        -0.5273 
     54 N          30.5341    2.4185  -10.1969 N.am      9 UNK        -0.4262 
     55 CA         31.3137    1.8857  -11.3214 C.3       9 UNK         0.0264 
     56 CB         30.6065    2.2636  -12.6335 C.3       9 UNK        -0.1955 
     57 C          31.5764    0.3670  -11.2653 C.2       9 UNK         0.5031 
     58 O          32.3978   -0.1303  -12.0367 O.2       9 UNK        -0.5390 
     59 N          30.8958   -0.3392  -10.3518 N.am      10 UNK        -0.4204 
     60 CA         31.1615   -1.7283   -9.9778 C.3       10 UNK         0.0237 
     61 CB         30.0559   -2.2010   -9.0196 C.3       10 UNK        -0.1985 
     62 C          32.5528   -1.9273   -9.3429 C.2       10 UNK         0.4970 
     63 O          33.1260   -3.0070   -9.4918 O.2       10 UNK        -0.4914 
     64 N          33.0711   -0.8935   -8.6663 N.am      11 UNK        -0.4285 
     65 CA         34.4433   -0.8348   -8.1536 C.3       11 UNK         0.1007 
     66 C          35.3861   -0.2657   -9.2454 C.2       11 UNK         0.5703 
     67 N          36.5329   -0.8936   -9.4673 N.am      11 UNK        -0.7361 
     68 O          35.1072    0.7603   -9.8629 O.2       11 UNK        -0.4986 
     69 C69        34.5172    0.0114   -6.8565 C.3       12 UNK        -0.0947 
     70 S70        33.9453   -0.9070   -5.3907 S.3       12 UNK        -0.2240 
     71 C71        32.1504   -0.6253   -5.4414 C.3       12 UNK         0.0194 
     72 H72        25.6910   -7.1409   -5.0528 H         1 UNK         0.0906 
     73 H73        27.4494   -7.0071   -5.1410 H         1 UNK         0.0906 
     74 H74        26.6987   -7.9205   -3.8302 H         1 UNK         0.0906 
     75 H75        26.6584   -6.7952   -1.8999 H         1 UNK         0.3140 
     76 H76        26.5143   -5.2309   -0.3516 H         1 UNK         0.1085 
     77 H77        27.8407   -3.1451   -0.5960 H         1 UNK         0.0836 
     78 H78        27.9545   -3.3860   -2.3245 H         1 UNK         0.0836 
     79 H79        30.0651   -4.7847   -3.3741 H         1 UNK         0.0731 
     80 H80        31.4662   -4.8535   -2.3334 H         1 UNK         0.0731 
     81 H81        31.7067   -3.1692   -4.5716 H         1 UNK         0.1312 
     82 H82        31.0649    0.9267   -3.4848 H         1 UNK         0.1406 
     83 H83        29.8617   -2.1837   -0.8224 H         1 UNK         0.1631 
     84 H84        29.9337    1.4932   -1.4281 H         1 UNK         0.0717 
     85 H85        30.1502    0.3459   -0.1261 H         1 UNK         0.0717 
     86 H86        26.1692    1.4172   -2.0442 H         1 UNK         0.0934 
     87 H87        27.5609    2.4190   -1.7759 H         1 UNK         0.0934 
     88 H88        28.7048    1.5611   -3.7478 H         1 UNK         0.0739 
     89 H89        26.8739   -0.6505   -3.7194 H         1 UNK         0.3093 
     90 H90        27.4302   -1.6694   -7.0800 H         1 UNK         0.0818 
     91 H91        28.6061   -2.9921   -4.5934 H         1 UNK         0.0819 
     92 H92        28.3027   -3.7688   -6.1447 H         1 UNK         0.0819 
     93 H93        29.5253   -2.5165   -6.0143 H         1 UNK         0.0819 
     94 H94        26.1592   -3.0207   -4.9247 H         1 UNK         0.3041 
     95 H95        22.9532   -1.3954   -5.3524 H         1 UNK         0.0784 
     96 H96        23.1923   -3.4141   -6.8215 H         1 UNK         0.0793 
     97 H97        24.0524   -4.2547   -5.5382 H         1 UNK         0.0793 
     98 H98        22.3647   -3.7971   -5.3206 H         1 UNK         0.0793 
     99 H99        23.8597   -3.1529   -3.2982 H         1 UNK         0.3024 
    100 H100       24.8283   -0.6410   -0.9445 H         1 UNK         0.1171 
    101 H101       23.2229   -2.0052    0.3876 H         1 UNK         0.0786 
    102 H102       22.4043   -0.9378   -0.7412 H         1 UNK         0.0786 
    103 H103       22.5217   -2.6510   -1.0952 H         1 UNK         0.0786 
    104 H104       26.2848   -2.2681   -0.8736 H         1 UNK         0.2977 
    105 H105       25.2079    1.2334   -4.4594 H         1 UNK         0.3127 
    106 H106       24.7544    3.9485   -5.1862 H         1 UNK         0.0770 
    107 H107       23.2398    1.4015   -5.9788 H         1 UNK         0.0814 
    108 H108       22.6381    3.0442   -6.1567 H         1 UNK         0.0814 
    109 H109       22.9302    2.3881   -4.5528 H         1 UNK         0.0814 
    110 H110       25.6251    1.0742   -7.1543 H         1 UNK         0.2983 
    111 H111       25.5919    2.4023   -9.6825 H         1 UNK         0.0947 
    112 H112       26.8126    0.3842  -10.4701 H         1 UNK         0.0806 
    113 H113       25.4781   -0.0787   -9.4253 H         1 UNK         0.0806 
    114 H114       27.1299   -0.1045   -8.8120 H         1 UNK         0.0806 
    115 H115       28.2141    1.8225   -7.3396 H         1 UNK         0.3000 
    116 H116       30.1650    2.6615   -6.9153 H         1 UNK         0.0850 
    117 H117       30.8753    4.9055   -7.6772 H         1 UNK         0.0810 
    118 H118       29.2004    4.9324   -7.1469 H         1 UNK         0.0810 
    119 H119       29.5846    4.9521   -8.8673 H         1 UNK         0.0810 
    120 H120       29.6267    2.8240  -10.4209 H         1 UNK         0.3040 
    121 H121       32.2899    2.3746  -11.3014 H         1 UNK         0.0766 
    122 H122       31.1727    1.9173  -13.4993 H         1 UNK         0.0812 
    123 H123       30.5002    3.3443  -12.7303 H         1 UNK         0.0812 
    124 H124       29.6112    1.8215  -12.6955 H         1 UNK         0.0812 
    125 H125       30.2345    0.1641   -9.7800 H         1 UNK         0.3205 
    126 H126       31.1217   -2.3366  -10.8838 H         1 UNK         0.0754 
    127 H127       29.9983   -1.5676   -8.1338 H         1 UNK         0.0769 
    128 H128       30.2358   -3.2230   -8.6828 H         1 UNK         0.0769 
    129 H129       29.0789   -2.1876   -9.5032 H         1 UNK         0.0769 
    130 H130       32.5677   -0.0128   -8.6422 H         1 UNK         0.2981 
    131 H131       34.7791   -1.8464   -7.9152 H         1 UNK         0.0541 
    132 H132       36.7779   -1.7287   -8.9582 H         1 UNK         0.3459 
    133 H133       37.1643   -0.5277  -10.1628 H         1 UNK         0.3459 
    134 H134       33.9618    0.9456   -6.9550 H         1 UNK         0.0612 
    135 H135       35.5492    0.2996   -6.6469 H         1 UNK         0.0612 
    136 H136       31.7166   -1.1781   -6.2745 H         1 UNK         0.0624 
    137 H137       31.9491    0.4305   -5.6309 H         1 UNK         0.0624 
@<TRIPOS>BOND
     1    1    2 1    
     2    1   72 1    
     3    1   73 1    
     4    1   74 1    
     5    2    3 2    
     6    2    4 am   BACKBONE|DICT|INTERRES
     7    4    5 1    
     8    4   75 1    
     9    5    6 1    
    10    5   35 1    
    11    5   76 1    
    12    6    7 1    
    13    6   77 1    
    14    6   78 1    
    15    7    8 1    
    16    8    9 1    
    17    8   79 1    
    18    8   80 1    
    19    9   10 ar   
    20    9   14 ar   
    21   10   11 ar   
    22   10   81 1    
    23   11   12 ar   
    24   11   71 1    
    25   12   13 ar   
    26   12   82 1    
    27   13   14 ar   
    28   13   15 1    
    29   14   83 1    
    30   15   16 1    
    31   15   84 1    
    32   15   85 1    
    33   16   17 1    
    34   17   18 1    
    35   17   86 1    
    36   17   87 1    
    37   18   19 1    
    38   18   37 1    
    39   18   88 1    
    40   19   20 am   BACKBONE|DICT|INTERRES
    41   19   89 1    
    42   20   21 2    
    43   20   22 1    
    44   22   23 1    
    45   22   24 1    
    46   22   90 1    
    47   23   91 1    
    48   23   92 1    
    49   23   93 1    
    50   24   25 am   BACKBONE|DICT|INTERRES
    51   24   94 1    
    52   25   26 2    
    53   25   27 1    
    54   27   28 1    
    55   27   29 1    
    56   27   95 1    
    57   28   96 1    
    58   28   97 1    
    59   28   98 1    
    60   29   30 am   BACKBONE|DICT|INTERRES
    61   29   99 1    
    62   30   31 2    
    63   30   32 1    
    64   32   33 1    
    65   32   34 1    
    66   32  100 1    
    67   33  101 1    
    68   33  102 1    
    69   33  103 1    
    70   34   35 am   BACKBONE|DICT|INTERRES
    71   34  104 1    
    72   35   36 2    
    73   37   38 2    
    74   37   39 am   BACKBONE|DICT|INTERRES
    75   39   40 1    
    76   39  105 1    
    77   40   41 1    
    78   40   42 1    
    79   40  106 1    
    80   41  107 1    
    81   41  108 1    
    82   41  109 1    
    83   42   43 2    
    84   42   44 am   BACKBONE|DICT|INTERRES
    85   44   45 1    
    86   44  110 1    
    87   45   46 1    
    88   45   47 1    
    89   45  111 1    
    90   46  112 1    
    91   46  113 1    
    92   46  114 1    
    93   47   48 2    
    94   47   49 am   BACKBONE|DICT|INTERRES
    95   49   50 1    
    96   49  115 1    
    97   50   51 1    
    98   50   52 1    
    99   50  116 1    
   100   51  117 1    
   101   51  118 1    
   102   51  119 1    
   103   52   53 2    
   104   52   54 am   BACKBONE|DICT|INTERRES
   105   54   55 1    
   106   54  120 1    
   107   55   56 1    
   108   55   57 1    
   109   55  121 1    
   110   56  122 1    
   111   56  123 1    
   112   56  124 1    
   113   57   58 2    
   114   57   59 am   BACKBONE|DICT|INTERRES
   115   59   60 1    
   116   59  125 1    
   117   60   61 1    
   118   60   62 1    
   119   60  126 1    
   120   61  127 1    
   121   61  128 1    
   122   61  129 1    
   123   62   63 2    
   124   62   64 am   BACKBONE|DICT|INTERRES
   125   64   65 1    
   126   64  130 1    
   127   65   66 1    
   128   65   69 1    
   129   65  131 1    
   130   66   67 am   BACKBONE|DICT|INTERRES
   131   66   68 2    
   132   67  132 1    
   133   67  133 1    
   134   69   70 1    
   135   69  134 1    
   136   69  135 1    
   137   70   71 1    
   138   71  136 1    
   139   71  137 1    
@<TRIPOS>SUBSTRUCTURE
     1 UNK         1 GROUP             0       ****    0 ROOT    
