@<TRIPOS>MOLECULE
3R137
137   139    1
SMALL
USER_CHARGES


@<TRIPOS>ATOM
      1 CA         30.0366    0.6915   -1.5634 C.3       0 UNK        -0.2020 
      2 C          29.1528   -0.5023   -1.8916 C.2       0 UNK         0.4855 
      3 O          28.4358   -0.4722   -2.8890 O.2       0 UNK        -0.5197 
      4 N          29.2038   -1.5570   -1.0684 N.am      1 UNK        -0.4892 
      5 CA         28.4611   -2.8064   -1.2686 C.3       1 UNK         0.0835 
      6 C6         28.9153   -3.9282   -0.2974 C.3       12 UNK        -0.0855 
      7 S7         30.7195   -4.2086   -0.2676 S.3       12 UNK        -0.2931 
      8 C8         30.9366   -5.4722   -1.5633 C.3       12 UNK         0.0378 
      9 C9         30.7817   -4.8806   -2.9569 C.ar      12 UNK        -0.0802 
     10 C10        31.7132   -3.9470   -3.4232 C.ar      12 UNK        -0.0944 
     11 C11        31.5756   -3.3755   -4.6906 C.ar      12 UNK        -0.0787 
     12 C12        30.5005   -3.7538   -5.4975 C.ar      12 UNK        -0.0862 
     13 C13        29.5542   -4.6761   -5.0396 C.ar      12 UNK        -0.0733 
     14 C14        29.7076   -5.2504   -3.7738 C.ar      12 UNK        -0.0832 
     15 C15        28.3430   -5.0086   -5.9015 C.3       12 UNK         0.0240 
     16 S16        26.8073   -4.2448   -5.2738 S.3       12 UNK        -0.2522 
     17 C17        27.2698   -2.4877   -5.1294 C.3       12 UNK        -0.0967 
     18 CA         26.9096   -1.6542   -6.3822 C.3       5 UNK         0.0660 
     19 N          25.5147   -1.1990   -6.3175 N.am      5 UNK        -0.4015 
     20 C          24.9324   -0.2549   -7.0726 C.2       4 UNK         0.4946 
     21 O          25.4520    0.2545   -8.0661 O.2       4 UNK        -0.5353 
     22 CA         23.5684    0.2770   -6.5982 C.3       4 UNK         0.0277 
     23 CB         22.4326   -0.3807   -7.3969 C.3       4 UNK        -0.1981 
     24 N          23.3130    0.1102   -5.1613 N.am      4 UNK        -0.4209 
     25 C          24.0831    0.5480   -4.1517 C.2       3 UNK         0.4942 
     26 O          25.1335    1.1710   -4.3084 O.2       3 UNK        -0.5208 
     27 CA         23.6200    0.2051   -2.7238 C.3       3 UNK         0.0250 
     28 CB         22.0823    0.1808   -2.5757 C.3       3 UNK        -0.1990 
     29 N          24.2023   -1.0419   -2.2081 N.am      3 UNK        -0.4232 
     30 C          24.1440   -2.2667   -2.7516 C.2       2 UNK         0.4993 
     31 O          23.6808   -2.5069   -3.8681 O.2       2 UNK        -0.5286 
     32 CA         24.7084   -3.4158   -1.8965 C.3       2 UNK         0.0209 
     33 CB         24.2131   -4.7961   -2.3679 C.3       2 UNK        -0.1931 
     34 N          26.1708   -3.4160   -1.8931 N.am      2 UNK        -0.4546 
     35 C          26.9351   -2.6031   -1.1535 C.2       1 UNK         0.5154 
     36 O          26.4745   -1.7625   -0.3749 O.2       1 UNK        -0.5181 
     37 C          27.9247   -0.4998   -6.5273 C.2       5 UNK         0.5014 
     38 O          28.8278   -0.5960   -7.3606 O.2       5 UNK        -0.5248 
     39 N          27.7362    0.5730   -5.7437 N.am      6 UNK        -0.4434 
     40 CA         28.6030    1.7503   -5.7140 C.3       6 UNK         0.0363 
     41 CB         28.1570    2.6832   -4.5775 C.3       6 UNK        -0.1936 
     42 C          28.6433    2.5180   -7.0434 C.2       6 UNK         0.5081 
     43 O          29.6691    3.1263   -7.3469 O.2       6 UNK        -0.5248 
     44 N          27.5451    2.4699   -7.8079 N.am      7 UNK        -0.4718 
     45 CA         27.4467    3.0420   -9.1478 C.3       7 UNK         0.0273 
     46 CB         26.0109    3.5353   -9.3913 C.3       7 UNK        -0.1935 
     47 C          27.8588    2.0159  -10.2116 C.2       7 UNK         0.5018 
     48 O          28.6170    2.3630  -11.1164 O.2       7 UNK        -0.5186 
     49 N          27.3650    0.7754  -10.0798 N.am      8 UNK        -0.4240 
     50 CA         27.5700   -0.3237  -11.0273 C.3       8 UNK         0.0235 
     51 CB         26.6973   -1.5226  -10.6220 C.3       8 UNK        -0.2000 
     52 C          29.0390   -0.7483  -11.1780 C.2       8 UNK         0.4941 
     53 O          29.5021   -0.9163  -12.3069 O.2       8 UNK        -0.5273 
     54 N          29.7458   -0.8983  -10.0499 N.am      9 UNK        -0.4262 
     55 CA         31.1737   -1.2300  -10.0132 C.3       9 UNK         0.0264 
     56 CB         31.4302   -2.1776   -8.8326 C.3       9 UNK        -0.1955 
     57 C          32.0652    0.0188   -9.8980 C.2       9 UNK         0.5031 
     58 O          33.2882   -0.1195   -9.9379 O.2       9 UNK        -0.5390 
     59 N          31.4501    1.1998   -9.7284 N.am      10 UNK        -0.4204 
     60 CA         32.0683    2.5163   -9.5226 C.3       10 UNK         0.0237 
     61 CB         32.8811    2.9444  -10.7636 C.3       10 UNK        -0.1985 
     62 C          32.8784    2.6374   -8.2125 C.2       10 UNK         0.4970 
     63 O          33.7022    3.5471   -8.0992 O.2       10 UNK        -0.4914 
     64 N          32.6368    1.7389   -7.2468 N.am      11 UNK        -0.4285 
     65 CA         33.3013    1.7174   -5.9352 C.3       11 UNK         0.1007 
     66 C          32.7079    2.6952   -4.8789 C.2       11 UNK         0.5703 
     67 N          31.6443    3.4345   -5.1700 N.am      11 UNK        -0.7361 
     68 O          33.2427    2.8071   -3.7783 O.2       11 UNK        -0.4986 
     69 C69        33.4854    0.2716   -5.4009 C.3       12 UNK        -0.0947 
     70 S70        31.9417   -0.6526   -5.0942 S.3       12 UNK        -0.2240 
     71 C71        32.5878   -2.3532   -5.1859 C.3       12 UNK         0.0194 
     72 H72        30.6861    0.4964   -0.7103 H         1 UNK         0.0906 
     73 H73        30.6659    0.9354   -2.4197 H         1 UNK         0.0906 
     74 H74        29.4218    1.5612   -1.3340 H         1 UNK         0.0906 
     75 H75        29.8040   -1.5355   -0.2567 H         1 UNK         0.3140 
     76 H76        28.6710   -3.1262   -2.2904 H         1 UNK         0.1085 
     77 H77        28.6119   -3.6860    0.7234 H         1 UNK         0.0836 
     78 H78        28.4180   -4.8697   -0.5389 H         1 UNK         0.0836 
     79 H79        31.9356   -5.9008   -1.4713 H         1 UNK         0.0731 
     80 H80        30.2365   -6.2930   -1.3995 H         1 UNK         0.0731 
     81 H81        32.5386   -3.6550   -2.7880 H         1 UNK         0.1312 
     82 H82        30.3768   -3.2992   -6.4691 H         1 UNK         0.1406 
     83 H83        28.9748   -5.9623   -3.4182 H         1 UNK         0.1631 
     84 H84        28.2106   -6.0906   -5.9406 H         1 UNK         0.0717 
     85 H85        28.5020   -4.6833   -6.9310 H         1 UNK         0.0717 
     86 H86        28.3258   -2.4107   -4.8744 H         1 UNK         0.0934 
     87 H87        26.7660   -2.0739   -4.2557 H         1 UNK         0.0934 
     88 H88        27.0092   -2.2770   -7.2723 H         1 UNK         0.0739 
     89 H89        24.9695   -1.5730   -5.5502 H         1 UNK         0.3093 
     90 H90        23.5573    1.3492   -6.8038 H         1 UNK         0.0818 
     91 H91        21.4669    0.0635   -7.1550 H         1 UNK         0.0819 
     92 H92        22.5853   -0.2536   -8.4698 H         1 UNK         0.0819 
     93 H93        22.3699   -1.4520   -7.2009 H         1 UNK         0.0819 
     94 H94        22.5086   -0.4490   -4.9142 H         1 UNK         0.3041 
     95 H95        23.9955    1.0058   -2.0844 H         1 UNK         0.0784 
     96 H96        21.6338    1.0922   -2.9739 H         1 UNK         0.0793 
     97 H97        21.6259   -0.6653   -3.0905 H         1 UNK         0.0793 
     98 H98        21.7944    0.1164   -1.5263 H         1 UNK         0.0793 
     99 H99        24.7163   -0.9557   -1.3376 H         1 UNK         0.3024 
    100 H100       24.3492   -3.2720   -0.8744 H         1 UNK         0.1171 
    101 H101       24.5646   -5.5904   -1.7093 H         1 UNK         0.0786 
    102 H102       24.5484   -5.0266   -3.3796 H         1 UNK         0.0786 
    103 H103       23.1230   -4.8377   -2.3707 H         1 UNK         0.0786 
    104 H104       26.6120   -4.0594   -2.5353 H         1 UNK         0.2977 
    105 H105       26.9505    0.5814   -5.1001 H         1 UNK         0.3127 
    106 H106       29.6151    1.4025   -5.4988 H         1 UNK         0.0770 
    107 H107       27.1411    3.0484   -4.7325 H         1 UNK         0.0814 
    108 H108       28.8088    3.5542   -4.5047 H         1 UNK         0.0814 
    109 H109       28.1853    2.1758   -3.6137 H         1 UNK         0.0814 
    110 H110       26.7701    1.8943   -7.5015 H         1 UNK         0.2983 
    111 H111       28.1169    3.9010   -9.2308 H         1 UNK         0.0947 
    112 H112       25.9133    3.9734  -10.3855 H         1 UNK         0.0806 
    113 H113       25.7302    4.3034   -8.6705 H         1 UNK         0.0806 
    114 H114       25.2825    2.7267   -9.3182 H         1 UNK         0.0806 
    115 H115       26.7286    0.5886   -9.3058 H         1 UNK         0.3000 
    116 H116       27.2297    0.0257  -12.0044 H         1 UNK         0.0850 
    117 H117       26.8058   -2.3437  -11.3319 H         1 UNK         0.0810 
    118 H118       25.6411   -1.2533  -10.5961 H         1 UNK         0.0810 
    119 H119       26.9680   -1.9033   -9.6373 H         1 UNK         0.0810 
    120 H120       29.2914   -0.7566   -9.1476 H         1 UNK         0.3040 
    121 H121       31.4600   -1.7509  -10.9292 H         1 UNK         0.0766 
    122 H122       32.4699   -2.5067   -8.8110 H         1 UNK         0.0812 
    123 H123       31.2241   -1.6854   -7.8827 H         1 UNK         0.0812 
    124 H124       30.8079   -3.0702   -8.8965 H         1 UNK         0.0812 
    125 H125       30.4395    1.1958   -9.7345 H         1 UNK         0.3205 
    126 H126       31.2410    3.2201   -9.4278 H         1 UNK         0.0754 
    127 H127       33.2011    3.9840  -10.6835 H         1 UNK         0.0769 
    128 H128       32.2868    2.8607  -11.6736 H         1 UNK         0.0769 
    129 H129       33.7785    2.3384  -10.8907 H         1 UNK         0.0769 
    130 H130       31.9232    1.0414   -7.3932 H         1 UNK         0.2981 
    131 H131       34.3147    2.0911   -6.0928 H         1 UNK         0.0541 
    132 H132       31.1752    3.3511   -6.0651 H         1 UNK         0.3459 
    133 H133       31.2966    4.0779   -4.4784 H         1 UNK         0.3459 
    134 H134       34.0674    0.2774   -4.4776 H         1 UNK         0.0612 
    135 H135       34.0836   -0.2918   -6.1190 H         1 UNK         0.0612 
    136 H136       33.5037   -2.4181   -4.5962 H         1 UNK         0.0624 
    137 H137       32.8695   -2.5805   -6.2145 H         1 UNK         0.0624 
@<TRIPOS>BOND
     1    1    2 1    
     2    1   72 1    
     3    1   73 1    
     4    1   74 1    
     5    2    3 2    
     6    2    4 am   BACKBONE|DICT|INTERRES
     7    4    5 1    
     8    4   75 1    
     9    5    6 1    
    10    5   35 1    
    11    5   76 1    
    12    6    7 1    
    13    6   77 1    
    14    6   78 1    
    15    7    8 1    
    16    8    9 1    
    17    8   79 1    
    18    8   80 1    
    19    9   10 ar   
    20    9   14 ar   
    21   10   11 ar   
    22   10   81 1    
    23   11   12 ar   
    24   11   71 1    
    25   12   13 ar   
    26   12   82 1    
    27   13   14 ar   
    28   13   15 1    
    29   14   83 1    
    30   15   16 1    
    31   15   84 1    
    32   15   85 1    
    33   16   17 1    
    34   17   18 1    
    35   17   86 1    
    36   17   87 1    
    37   18   19 1    
    38   18   37 1    
    39   18   88 1    
    40   19   20 am   BACKBONE|DICT|INTERRES
    41   19   89 1    
    42   20   21 2    
    43   20   22 1    
    44   22   23 1    
    45   22   24 1    
    46   22   90 1    
    47   23   91 1    
    48   23   92 1    
    49   23   93 1    
    50   24   25 am   BACKBONE|DICT|INTERRES
    51   24   94 1    
    52   25   26 2    
    53   25   27 1    
    54   27   28 1    
    55   27   29 1    
    56   27   95 1    
    57   28   96 1    
    58   28   97 1    
    59   28   98 1    
    60   29   30 am   BACKBONE|DICT|INTERRES
    61   29   99 1    
    62   30   31 2    
    63   30   32 1    
    64   32   33 1    
    65   32   34 1    
    66   32  100 1    
    67   33  101 1    
    68   33  102 1    
    69   33  103 1    
    70   34   35 am   BACKBONE|DICT|INTERRES
    71   34  104 1    
    72   35   36 2    
    73   37   38 2    
    74   37   39 am   BACKBONE|DICT|INTERRES
    75   39   40 1    
    76   39  105 1    
    77   40   41 1    
    78   40   42 1    
    79   40  106 1    
    80   41  107 1    
    81   41  108 1    
    82   41  109 1    
    83   42   43 2    
    84   42   44 am   BACKBONE|DICT|INTERRES
    85   44   45 1    
    86   44  110 1    
    87   45   46 1    
    88   45   47 1    
    89   45  111 1    
    90   46  112 1    
    91   46  113 1    
    92   46  114 1    
    93   47   48 2    
    94   47   49 am   BACKBONE|DICT|INTERRES
    95   49   50 1    
    96   49  115 1    
    97   50   51 1    
    98   50   52 1    
    99   50  116 1    
   100   51  117 1    
   101   51  118 1    
   102   51  119 1    
   103   52   53 2    
   104   52   54 am   BACKBONE|DICT|INTERRES
   105   54   55 1    
   106   54  120 1    
   107   55   56 1    
   108   55   57 1    
   109   55  121 1    
   110   56  122 1    
   111   56  123 1    
   112   56  124 1    
   113   57   58 2    
   114   57   59 am   BACKBONE|DICT|INTERRES
   115   59   60 1    
   116   59  125 1    
   117   60   61 1    
   118   60   62 1    
   119   60  126 1    
   120   61  127 1    
   121   61  128 1    
   122   61  129 1    
   123   62   63 2    
   124   62   64 am   BACKBONE|DICT|INTERRES
   125   64   65 1    
   126   64  130 1    
   127   65   66 1    
   128   65   69 1    
   129   65  131 1    
   130   66   67 am   BACKBONE|DICT|INTERRES
   131   66   68 2    
   132   67  132 1    
   133   67  133 1    
   134   69   70 1    
   135   69  134 1    
   136   69  135 1    
   137   70   71 1    
   138   71  136 1    
   139   71  137 1    
@<TRIPOS>SUBSTRUCTURE
     1 UNK         1 GROUP             0       ****    0 ROOT    
