@<TRIPOS>MOLECULE
3R137
137   139    1
SMALL
USER_CHARGES


@<TRIPOS>ATOM
      1 CA         29.5045   -4.8584   -4.9461 C.3       0 UNK        -0.2020 
      2 C          28.7517   -5.6284   -3.8728 C.2       0 UNK         0.4855 
      3 O          28.1376   -6.6545   -4.1650 O.2       0 UNK        -0.5197 
      4 N          28.7920   -5.1358   -2.6282 N.am      1 UNK        -0.4892 
      5 CA         28.1385   -5.7423   -1.4574 C.3       1 UNK         0.0835 
      6 C6         28.7666   -5.2922   -0.1077 C.3       12 UNK        -0.0855 
      7 S7         30.5940   -5.3617   -0.0566 S.3       12 UNK        -0.2931 
      8 C8         31.0412   -3.5967    0.0764 C.3       12 UNK         0.0378 
      9 C9         30.7770   -2.8574   -1.2267 C.ar      12 UNK        -0.0802 
     10 C10        31.7642   -2.7947   -2.2149 C.ar      12 UNK        -0.0944 
     11 C11        31.5050   -2.1646   -3.4360 C.ar      12 UNK        -0.0787 
     12 C12        30.2362   -1.6285   -3.6770 C.ar      12 UNK        -0.0862 
     13 C13        29.2526   -1.6610   -2.6852 C.ar      12 UNK        -0.0733 
     14 C14        29.5379   -2.2517   -1.4534 C.ar      12 UNK        -0.0832 
     15 C15        27.8725   -1.0800   -2.9399 C.3       12 UNK         0.0240 
     16 S16        27.7984    0.6880   -2.5207 S.3       12 UNK        -0.2522 
     17 C17        28.5890    1.4672   -3.9717 C.3       12 UNK        -0.0967 
     18 CA         27.7536    1.3480   -5.2731 C.3       5 UNK         0.0660 
     19 N          26.3475    1.7138   -5.0540 N.am      5 UNK        -0.4015 
     20 C          25.3815    1.8513   -5.9694 C.2       4 UNK         0.4946 
     21 O          25.5704    1.8474   -7.1867 O.2       4 UNK        -0.5353 
     22 CA         23.9497    1.9683   -5.4289 C.3       4 UNK         0.0277 
     23 CB         23.0767    2.8641   -6.3267 C.3       4 UNK        -0.1981 
     24 N          23.3412    0.6399   -5.3398 N.am      4 UNK        -0.4209 
     25 C          23.6039   -0.2733   -4.3938 C.2       3 UNK         0.4942 
     26 O          24.3474   -0.0592   -3.4339 O.2       3 UNK        -0.5208 
     27 CA         22.8555   -1.6179   -4.5183 C.3       3 UNK         0.0250 
     28 CB         22.8379   -2.1717   -5.9615 C.3       3 UNK        -0.1990 
     29 N          23.3173   -2.6511   -3.5793 N.am      3 UNK        -0.4232 
     30 C          24.5109   -3.2638   -3.5487 C.2       2 UNK         0.4993 
     31 O          25.4520   -3.0169   -4.3090 O.2       2 UNK        -0.5286 
     32 CA         24.6513   -4.3939   -2.5184 C.3       2 UNK         0.0209 
     33 CB         23.8468   -5.6324   -2.9698 C.3       2 UNK        -0.1931 
     34 N          26.0658   -4.7328   -2.3715 N.am      2 UNK        -0.4546 
     35 C          26.6059   -5.5205   -1.4316 C.2       1 UNK         0.5154 
     36 O          25.9423   -6.0558   -0.5418 O.2       1 UNK        -0.5181 
     37 C          28.4567    2.0911   -6.4237 C.2       5 UNK         0.5014 
     38 O          29.1662    1.4552   -7.2065 O.2       5 UNK        -0.5248 
     39 N          28.2230    3.4066   -6.5245 N.am      6 UNK        -0.4434 
     40 CA         28.7853    4.2864   -7.5528 C.3       6 UNK         0.0363 
     41 CB         28.4431    5.7447   -7.2078 C.3       6 UNK        -0.1936 
     42 C          28.3335    3.9585   -8.9886 C.2       6 UNK         0.5081 
     43 O          29.0611    4.2819   -9.9268 O.2       6 UNK        -0.5248 
     44 N          27.1577    3.3357   -9.1376 N.am      7 UNK        -0.4718 
     45 CA         26.6075    2.8941  -10.4195 C.3       7 UNK         0.0273 
     46 CB         25.1327    3.3211  -10.5074 C.3       7 UNK        -0.1935 
     47 C          26.7328    1.3729  -10.5825 C.2       7 UNK         0.5018 
     48 O          27.0371    0.9069  -11.6808 O.2       7 UNK        -0.5186 
     49 N          26.4816    0.6281   -9.4970 N.am      8 UNK        -0.4240 
     50 CA         26.4517   -0.8340   -9.4680 C.3       8 UNK         0.0235 
     51 CB         25.7822   -1.2982   -8.1649 C.3       8 UNK        -0.2000 
     52 C          27.8313   -1.4906   -9.6214 C.2       8 UNK         0.4941 
     53 O          27.9079   -2.5739  -10.2032 O.2       8 UNK        -0.5273 
     54 N          28.8807   -0.8469   -9.0938 N.am      9 UNK        -0.4262 
     55 CA         30.2527   -1.3573   -9.1215 C.3       9 UNK         0.0264 
     56 CB         30.6303   -1.8937   -7.7315 C.3       9 UNK        -0.1955 
     57 C          31.2592   -0.2963   -9.5798 C.2       9 UNK         0.5031 
     58 O          32.1715   -0.6342  -10.3349 O.2       9 UNK        -0.5390 
     59 N          31.0967    0.9484   -9.1026 N.am      10 UNK        -0.4204 
     60 CA         32.0019    2.0906   -9.2936 C.3       10 UNK         0.0237 
     61 CB         32.0416    2.5304  -10.7730 C.3       10 UNK        -0.1985 
     62 C          33.4035    1.8437   -8.6953 C.2       10 UNK         0.4970 
     63 O          34.4032    2.3009   -9.2520 O.2       10 UNK        -0.4914 
     64 N          33.4458    1.1150   -7.5717 N.am      11 UNK        -0.4285 
     65 CA         34.6674    0.7217   -6.8535 C.3       11 UNK         0.1007 
     66 C          35.3694    1.8606   -6.0553 C.2       11 UNK         0.5703 
     67 N          34.7672    3.0336   -5.8956 N.am      11 UNK        -0.7361 
     68 O          36.4906    1.6795   -5.5857 O.2       11 UNK        -0.4986 
     69 C69        34.4280   -0.5479   -5.9913 C.3       12 UNK        -0.0947 
     70 S70        33.1230   -0.3449   -4.7308 S.3       12 UNK        -0.2240 
     71 C71        32.5881   -2.0687   -4.4993 C.3       12 UNK         0.0194 
     72 H72        28.9760   -3.9381   -5.1941 H         1 UNK         0.0906 
     73 H73        30.5090   -4.6058   -4.6085 H         1 UNK         0.0906 
     74 H74        29.5968   -5.4525   -5.8550 H         1 UNK         0.0906 
     75 H75        29.3394   -4.3057   -2.4368 H         1 UNK         0.3140 
     76 H76        28.2835   -6.8224   -1.5330 H         1 UNK         0.1085 
     77 H77        28.4305   -4.2930    0.1676 H         1 UNK         0.0836 
     78 H78        28.4035   -5.9392    0.6933 H         1 UNK         0.0836 
     79 H79        30.4932   -3.1357    0.8998 H         1 UNK         0.0731 
     80 H80        32.0981   -3.5201    0.3365 H         1 UNK         0.0731 
     81 H81        32.7321   -3.2423   -2.0337 H         1 UNK         0.1312 
     82 H82        30.0237   -1.1691   -4.6316 H         1 UNK         0.1406 
     83 H83        28.7794   -2.2617   -0.6832 H         1 UNK         0.1631 
     84 H84        27.1326   -1.6046   -2.3333 H         1 UNK         0.0717 
     85 H85        27.5700   -1.2487   -3.9729 H         1 UNK         0.0717 
     86 H86        29.5884    1.0509   -4.1049 H         1 UNK         0.0934 
     87 H87        28.7438    2.5181   -3.7184 H         1 UNK         0.0934 
     88 H88        27.7387    0.3001   -5.5739 H         1 UNK         0.0739 
     89 H89        26.0590    1.6716   -4.0850 H         1 UNK         0.3093 
     90 H90        23.9828    2.4166   -4.4333 H         1 UNK         0.0818 
     91 H91        22.0789    2.9933   -5.9072 H         1 UNK         0.0819 
     92 H92        23.5155    3.8575   -6.4295 H         1 UNK         0.0819 
     93 H93        22.9668    2.4530   -7.3313 H         1 UNK         0.0819 
     94 H94        22.7236    0.3834   -6.0958 H         1 UNK         0.3041 
     95 H95        21.8229   -1.4064   -4.2367 H         1 UNK         0.0784 
     96 H96        22.3435   -1.4921   -6.6558 H         1 UNK         0.0793 
     97 H97        23.8451   -2.3507   -6.3359 H         1 UNK         0.0793 
     98 H98        22.2975   -3.1172   -6.0111 H         1 UNK         0.0793 
     99 H99        22.6364   -2.9204   -2.8829 H         1 UNK         0.3024 
    100 H100       24.2766   -4.0362   -1.5568 H         1 UNK         0.1171 
    101 H101       23.8827   -6.4309   -2.2290 H         1 UNK         0.0786 
    102 H102       24.2271   -6.0333   -3.9103 H         1 UNK         0.0786 
    103 H103       22.7941   -5.3906   -3.1208 H         1 UNK         0.0786 
    104 H104       26.6647   -4.3112   -3.0714 H         1 UNK         0.2977 
    105 H105       27.6052    3.8348   -5.8502 H         1 UNK         0.3127 
    106 H106       29.8709    4.1764   -7.5217 H         1 UNK         0.0770 
    107 H107       27.3657    5.9151   -7.1987 H         1 UNK         0.0814 
    108 H108       28.8744    6.4300   -7.9391 H         1 UNK         0.0814 
    109 H109       28.8382    6.0267   -6.2317 H         1 UNK         0.0814 
    110 H110       26.6373    3.0669   -8.3079 H         1 UNK         0.2983 
    111 H111       27.1442    3.3609  -11.2485 H         1 UNK         0.0947 
    112 H112       24.6884    2.9999  -11.4505 H         1 UNK         0.0806 
    113 H113       25.0325    4.4052  -10.4546 H         1 UNK         0.0806 
    114 H114       24.5365    2.8911   -9.7011 H         1 UNK         0.0806 
    115 H115       26.1944    1.1008   -8.6403 H         1 UNK         0.3000 
    116 H116       25.8346   -1.1694  -10.3044 H         1 UNK         0.0850 
    117 H117       25.6963   -2.3853   -8.1345 H         1 UNK         0.0810 
    118 H118       24.7763   -0.8886   -8.0732 H         1 UNK         0.0810 
    119 H119       26.3489   -0.9916   -7.2850 H         1 UNK         0.0810 
    120 H120       28.7266    0.0388   -8.6253 H         1 UNK         0.3040 
    121 H121       30.3321   -2.1830   -9.8321 H         1 UNK         0.0766 
    122 H122       31.6461   -2.2909   -7.7361 H         1 UNK         0.0812 
    123 H123       30.5833   -1.1132   -6.9719 H         1 UNK         0.0812 
    124 H124       29.9668   -2.7022   -7.4246 H         1 UNK         0.0812 
    125 H125       30.3379    1.1153   -8.4402 H         1 UNK         0.3205 
    126 H126       31.5731    2.9139   -8.7219 H         1 UNK         0.0754 
    127 H127       32.5849    3.4692  -10.8865 H         1 UNK         0.0769 
    128 H128       31.0369    2.6905  -11.1644 H         1 UNK         0.0769 
    129 H129       32.5344    1.7914  -11.4053 H         1 UNK         0.0769 
    130 H130       32.5804    0.7986   -7.1618 H         1 UNK         0.2981 
    131 H131       35.3928    0.4358   -7.6177 H         1 UNK         0.0541 
    132 H132       33.8487    3.1920   -6.2752 H         1 UNK         0.3459 
    133 H133       35.2363    3.7631   -5.3826 H         1 UNK         0.3459 
    134 H134       35.3481   -0.8607   -5.4943 H         1 UNK         0.0612 
    135 H135       34.1507   -1.3752   -6.6465 H         1 UNK         0.0612 
    136 H136       32.2116   -2.4721   -5.4381 H         1 UNK         0.0624 
    137 H137       33.4533   -2.6746   -4.2259 H         1 UNK         0.0624 
@<TRIPOS>BOND
     1    1    2 1    
     2    1   72 1    
     3    1   73 1    
     4    1   74 1    
     5    2    3 2    
     6    2    4 am   BACKBONE|DICT|INTERRES
     7    4    5 1    
     8    4   75 1    
     9    5    6 1    
    10    5   35 1    
    11    5   76 1    
    12    6    7 1    
    13    6   77 1    
    14    6   78 1    
    15    7    8 1    
    16    8    9 1    
    17    8   79 1    
    18    8   80 1    
    19    9   10 ar   
    20    9   14 ar   
    21   10   11 ar   
    22   10   81 1    
    23   11   12 ar   
    24   11   71 1    
    25   12   13 ar   
    26   12   82 1    
    27   13   14 ar   
    28   13   15 1    
    29   14   83 1    
    30   15   16 1    
    31   15   84 1    
    32   15   85 1    
    33   16   17 1    
    34   17   18 1    
    35   17   86 1    
    36   17   87 1    
    37   18   19 1    
    38   18   37 1    
    39   18   88 1    
    40   19   20 am   BACKBONE|DICT|INTERRES
    41   19   89 1    
    42   20   21 2    
    43   20   22 1    
    44   22   23 1    
    45   22   24 1    
    46   22   90 1    
    47   23   91 1    
    48   23   92 1    
    49   23   93 1    
    50   24   25 am   BACKBONE|DICT|INTERRES
    51   24   94 1    
    52   25   26 2    
    53   25   27 1    
    54   27   28 1    
    55   27   29 1    
    56   27   95 1    
    57   28   96 1    
    58   28   97 1    
    59   28   98 1    
    60   29   30 am   BACKBONE|DICT|INTERRES
    61   29   99 1    
    62   30   31 2    
    63   30   32 1    
    64   32   33 1    
    65   32   34 1    
    66   32  100 1    
    67   33  101 1    
    68   33  102 1    
    69   33  103 1    
    70   34   35 am   BACKBONE|DICT|INTERRES
    71   34  104 1    
    72   35   36 2    
    73   37   38 2    
    74   37   39 am   BACKBONE|DICT|INTERRES
    75   39   40 1    
    76   39  105 1    
    77   40   41 1    
    78   40   42 1    
    79   40  106 1    
    80   41  107 1    
    81   41  108 1    
    82   41  109 1    
    83   42   43 2    
    84   42   44 am   BACKBONE|DICT|INTERRES
    85   44   45 1    
    86   44  110 1    
    87   45   46 1    
    88   45   47 1    
    89   45  111 1    
    90   46  112 1    
    91   46  113 1    
    92   46  114 1    
    93   47   48 2    
    94   47   49 am   BACKBONE|DICT|INTERRES
    95   49   50 1    
    96   49  115 1    
    97   50   51 1    
    98   50   52 1    
    99   50  116 1    
   100   51  117 1    
   101   51  118 1    
   102   51  119 1    
   103   52   53 2    
   104   52   54 am   BACKBONE|DICT|INTERRES
   105   54   55 1    
   106   54  120 1    
   107   55   56 1    
   108   55   57 1    
   109   55  121 1    
   110   56  122 1    
   111   56  123 1    
   112   56  124 1    
   113   57   58 2    
   114   57   59 am   BACKBONE|DICT|INTERRES
   115   59   60 1    
   116   59  125 1    
   117   60   61 1    
   118   60   62 1    
   119   60  126 1    
   120   61  127 1    
   121   61  128 1    
   122   61  129 1    
   123   62   63 2    
   124   62   64 am   BACKBONE|DICT|INTERRES
   125   64   65 1    
   126   64  130 1    
   127   65   66 1    
   128   65   69 1    
   129   65  131 1    
   130   66   67 am   BACKBONE|DICT|INTERRES
   131   66   68 2    
   132   67  132 1    
   133   67  133 1    
   134   69   70 1    
   135   69  134 1    
   136   69  135 1    
   137   70   71 1    
   138   71  136 1    
   139   71  137 1    
@<TRIPOS>SUBSTRUCTURE
     1 UNK         1 GROUP             0       ****    0 ROOT    
