@<TRIPOS>MOLECULE
3R137
137   139    1
SMALL
USER_CHARGES


@<TRIPOS>ATOM
      1 CA         26.4836   -4.3316    2.4612 C.3       0 UNK        -0.2020 
      2 C          26.7869   -3.5614    1.1852 C.2       0 UNK         0.4855 
      3 O          26.6076   -2.3441    1.1459 O.2       0 UNK        -0.5197 
      4 N          27.2313   -4.2602    0.1334 N.am      1 UNK        -0.4892 
      5 CA         27.6109   -3.7105   -1.1768 C.3       1 UNK         0.0835 
      6 C6         28.6386   -4.6323   -1.8868 C.3       12 UNK        -0.0855 
      7 S7         30.1975   -4.7613   -0.9413 S.3       12 UNK        -0.2931 
      8 C8         31.4421   -4.1404   -2.1303 C.3       12 UNK         0.0378 
      9 C9         31.2356   -2.7028   -2.6114 C.ar      12 UNK        -0.0802 
     10 C10        31.6911   -2.3442   -3.8837 C.ar      12 UNK        -0.0944 
     11 C11        31.5304   -1.0401   -4.3626 C.ar      12 UNK        -0.0787 
     12 C12        30.8826   -0.0903   -3.5693 C.ar      12 UNK        -0.0862 
     13 C13        30.4088   -0.4352   -2.3011 C.ar      12 UNK        -0.0733 
     14 C14        30.6200   -1.7297   -1.8154 C.ar      12 UNK        -0.0832 
     15 C15        29.6474    0.5728   -1.4546 C.3       12 UNK         0.0240 
     16 S16        27.8775    0.1484   -1.4015 S.3       12 UNK        -0.2522 
     17 C17        27.1105    1.3936   -2.4895 C.3       12 UNK        -0.0967 
     18 CA         27.4697    1.2848   -3.9947 C.3       5 UNK         0.0660 
     19 N          27.3606   -0.0729   -4.5354 N.am      5 UNK        -0.4015 
     20 C          27.8713   -0.4613   -5.7144 C.2       4 UNK         0.4946 
     21 O          28.5239    0.2748   -6.4540 O.2       4 UNK        -0.5353 
     22 CA         27.5669   -1.8975   -6.1713 C.3       4 UNK         0.0277 
     23 CB         28.5897   -2.8767   -5.5821 C.3       4 UNK        -0.1981 
     24 N          26.2093   -2.3191   -5.8172 N.am      4 UNK        -0.4209 
     25 C          25.1060   -1.7981   -6.3760 C.2       3 UNK         0.4942 
     26 O          25.1297   -0.9519   -7.2680 O.2       3 UNK        -0.5208 
     27 CA         23.7444   -2.2489   -5.8225 C.3       3 UNK         0.0250 
     28 CB         23.2271   -3.4701   -6.5984 C.3       3 UNK        -0.1990 
     29 N          23.7560   -2.5503   -4.3902 N.am      3 UNK        -0.4232 
     30 C          24.1310   -1.7095   -3.4161 C.2       2 UNK         0.4993 
     31 O          24.5153   -0.5555   -3.6159 O.2       2 UNK        -0.5286 
     32 CA         24.1072   -2.2583   -1.9795 C.3       2 UNK         0.0209 
     33 CB         23.1473   -3.4538   -1.7864 C.3       2 UNK        -0.1931 
     34 N          25.4421   -2.6102   -1.4836 N.am      2 UNK        -0.4546 
     35 C          26.3660   -3.4062   -2.0440 C.2       1 UNK         0.5154 
     36 O          26.2536   -3.9050   -3.1668 O.2       1 UNK        -0.5181 
     37 C          26.6089    2.2679   -4.8087 C.2       5 UNK         0.5014 
     38 O          27.0569    3.3821   -5.0805 O.2       5 UNK        -0.5248 
     39 N          25.3955    1.8322   -5.1826 N.am      6 UNK        -0.4434 
     40 CA         24.4569    2.5879   -6.0144 C.3       6 UNK         0.0363 
     41 CB         23.0970    1.8727   -6.0419 C.3       6 UNK        -0.1936 
     42 C          24.9821    2.8217   -7.4412 C.2       6 UNK         0.5081 
     43 O          24.8631    3.9362   -7.9513 O.2       6 UNK        -0.5248 
     44 N          25.5614    1.7787   -8.0535 N.am      7 UNK        -0.4718 
     45 CA         26.2019    1.8447   -9.3689 C.3       7 UNK         0.0273 
     46 CB         26.4578    0.4222   -9.8902 C.3       7 UNK        -0.1935 
     47 C          27.5095    2.6510   -9.3527 C.2       7 UNK         0.5018 
     48 O          27.7777    3.3761  -10.3114 O.2       7 UNK        -0.5186 
     49 N          28.3042    2.4923   -8.2829 N.am      8 UNK        -0.4240 
     50 CA         29.5885    3.1364   -7.9708 C.3       8 UNK         0.0235 
     51 CB         29.4422    4.6661   -7.8618 C.3       8 UNK        -0.2000 
     52 C          30.7475    2.7503   -8.9070 C.2       8 UNK         0.4941 
     53 O          31.8450    2.4793   -8.4218 O.2       8 UNK        -0.5273 
     54 N          30.4928    2.7177  -10.2206 N.am      9 UNK        -0.4262 
     55 CA         31.4408    2.3114  -11.2603 C.3       9 UNK         0.0264 
     56 CB         30.9318    2.8040  -12.6242 C.3       9 UNK        -0.1955 
     57 C          31.6860    0.7929  -11.2971 C.2       9 UNK         0.5031 
     58 O          32.7433    0.3646  -11.7634 O.2       9 UNK        -0.5390 
     59 N          30.7272   -0.0002  -10.7975 N.am      10 UNK        -0.4204 
     60 CA         30.7731   -1.4646  -10.7226 C.3       10 UNK         0.0237 
     61 CB         29.3321   -2.0001  -10.6172 C.3       10 UNK        -0.1985 
     62 C          31.6709   -1.9573   -9.5686 C.2       10 UNK         0.4970 
     63 O          31.2112   -2.7131   -8.7111 O.2       10 UNK        -0.4914 
     64 N          32.9253   -1.4972   -9.5626 N.am      11 UNK        -0.4285 
     65 CA         33.9194   -1.7078   -8.5007 C.3       11 UNK         0.1007 
     66 C          35.2795   -2.2537   -9.0225 C.2       11 UNK         0.5703 
     67 N          35.4095   -2.6053  -10.2969 N.am      11 UNK        -0.7361 
     68 O          36.2318   -2.3815   -8.2567 O.2       11 UNK        -0.4986 
     69 C69        34.0668   -0.4220   -7.6304 C.3       12 UNK        -0.0947 
     70 S70        33.8437   -0.7476   -5.8542 S.3       12 UNK        -0.2240 
     71 C71        32.0283   -0.6714   -5.7507 C.3       12 UNK         0.0194 
     72 H72        25.4339   -4.2144    2.7294 H         1 UNK         0.0906 
     73 H73        26.6901   -5.3963    2.3546 H         1 UNK         0.0906 
     74 H74        27.0899   -3.9495    3.2820 H         1 UNK         0.0906 
     75 H75        27.3447   -5.2600    0.2238 H         1 UNK         0.3140 
     76 H76        28.0930   -2.7472   -1.0110 H         1 UNK         0.1085 
     77 H77        28.8659   -4.2685   -2.8876 H         1 UNK         0.0836 
     78 H78        28.2271   -5.6341   -2.0221 H         1 UNK         0.0836 
     79 H79        31.4587   -4.8193   -2.9846 H         1 UNK         0.0731 
     80 H80        32.4265   -4.2079   -1.6656 H         1 UNK         0.0731 
     81 H81        32.1797   -3.0800   -4.5081 H         1 UNK         0.1312 
     82 H82        30.7372    0.9121   -3.9465 H         1 UNK         0.1406 
     83 H83        30.2770   -1.9802   -0.8215 H         1 UNK         0.1631 
     84 H84        29.7854    1.5887   -1.8275 H         1 UNK         0.0717 
     85 H85        30.0435    0.5627   -0.4382 H         1 UNK         0.0717 
     86 H86        26.0317    1.3012   -2.3476 H         1 UNK         0.0934 
     87 H87        27.3721    2.3841   -2.1119 H         1 UNK         0.0934 
     88 H88        28.5076    1.5993   -4.1123 H         1 UNK         0.0739 
     89 H89        26.7831   -0.7134   -4.0091 H         1 UNK         0.3093 
     90 H90        27.6543   -1.9309   -7.2596 H         1 UNK         0.0818 
     91 H91        29.5774   -2.7007   -6.0089 H         1 UNK         0.0819 
     92 H92        28.6765   -2.7550   -4.5033 H         1 UNK         0.0819 
     93 H93        28.3272   -3.9138   -5.7907 H         1 UNK         0.0819 
     94 H94        26.1109   -2.9906   -5.0619 H         1 UNK         0.3041 
     95 H95        23.0419   -1.4275   -5.9731 H         1 UNK         0.0784 
     96 H96        23.1883   -3.2636   -7.6691 H         1 UNK         0.0793 
     97 H97        23.8695   -4.3404   -6.4572 H         1 UNK         0.0793 
     98 H98        22.2184   -3.7416   -6.2865 H         1 UNK         0.0793 
     99 H99        23.4962   -3.4891   -4.1245 H         1 UNK         0.3024 
    100 H100       23.7467   -1.4399   -1.3539 H         1 UNK         0.1171 
    101 H101       23.0499   -3.7046   -0.7299 H         1 UNK         0.0786 
    102 H102       22.1454   -3.2208   -2.1504 H         1 UNK         0.0786 
    103 H103       23.4913   -4.3513   -2.3018 H         1 UNK         0.0786 
    104 H104       25.6766   -2.2462   -0.5631 H         1 UNK         0.2977 
    105 H105       25.0901    0.9207   -4.8532 H         1 UNK         0.3127 
    106 H106       24.3168    3.5651   -5.5472 H         1 UNK         0.0770 
    107 H107       23.1622    0.9003   -6.5297 H         1 UNK         0.0814 
    108 H108       22.3605    2.4614   -6.5903 H         1 UNK         0.0814 
    109 H109       22.7066    1.7187   -5.0357 H         1 UNK         0.0814 
    110 H110       25.5448    0.8679   -7.5996 H         1 UNK         0.2983 
    111 H111       25.5157    2.3430  -10.0574 H         1 UNK         0.0947 
    112 H112       26.9475    0.4401  -10.8648 H         1 UNK         0.0806 
    113 H113       25.5244   -0.1289  -10.0065 H         1 UNK         0.0806 
    114 H114       27.0934   -0.1445   -9.2093 H         1 UNK         0.0806 
    115 H115       28.0283    1.7929   -7.5983 H         1 UNK         0.3000 
    116 H116       29.8573    2.7652   -6.9801 H         1 UNK         0.0850 
    117 H117       30.3756    5.1228   -7.5303 H         1 UNK         0.0810 
    118 H118       28.6733    4.9360   -7.1374 H         1 UNK         0.0810 
    119 H119       29.1791    5.1226   -8.8163 H         1 UNK         0.0810 
    120 H120       29.5569    2.9908  -10.5158 H         1 UNK         0.3040 
    121 H121       32.3994    2.7935  -11.0568 H         1 UNK         0.0766 
    122 H122       30.8265    3.8890  -12.6395 H         1 UNK         0.0812 
    123 H123       29.9632    2.3695  -12.8753 H         1 UNK         0.0812 
    124 H124       31.6270    2.5359  -13.4211 H         1 UNK         0.0812 
    125 H125       29.9168    0.4456  -10.3952 H         1 UNK         0.3205 
    126 H126       31.2028   -1.8466  -11.6511 H         1 UNK         0.0754 
    127 H127       29.3187   -3.0905  -10.6434 H         1 UNK         0.0769 
    128 H128       28.7140   -1.6511  -11.4447 H         1 UNK         0.0769 
    129 H129       28.8558   -1.6929   -9.6856 H         1 UNK         0.0769 
    130 H130       33.2012   -0.8745  -10.3166 H         1 UNK         0.2981 
    131 H131       33.5577   -2.5197   -7.8676 H         1 UNK         0.0541 
    132 H132       36.2945   -2.9639  -10.6196 H         1 UNK         0.3459 
    133 H133       34.6321   -2.5361  -10.9338 H         1 UNK         0.3459 
    134 H134       35.0382    0.0560   -7.7695 H         1 UNK         0.0612 
    135 H135       33.3407    0.3383   -7.9208 H         1 UNK         0.0612 
    136 H136       31.5938   -1.3594   -6.4748 H         1 UNK         0.0624 
    137 H137       31.6919    0.3275   -6.0345 H         1 UNK         0.0624 
@<TRIPOS>BOND
     1    1    2 1    
     2    1   72 1    
     3    1   73 1    
     4    1   74 1    
     5    2    3 2    
     6    2    4 am   BACKBONE|DICT|INTERRES
     7    4    5 1    
     8    4   75 1    
     9    5    6 1    
    10    5   35 1    
    11    5   76 1    
    12    6    7 1    
    13    6   77 1    
    14    6   78 1    
    15    7    8 1    
    16    8    9 1    
    17    8   79 1    
    18    8   80 1    
    19    9   10 ar   
    20    9   14 ar   
    21   10   11 ar   
    22   10   81 1    
    23   11   12 ar   
    24   11   71 1    
    25   12   13 ar   
    26   12   82 1    
    27   13   14 ar   
    28   13   15 1    
    29   14   83 1    
    30   15   16 1    
    31   15   84 1    
    32   15   85 1    
    33   16   17 1    
    34   17   18 1    
    35   17   86 1    
    36   17   87 1    
    37   18   19 1    
    38   18   37 1    
    39   18   88 1    
    40   19   20 am   BACKBONE|DICT|INTERRES
    41   19   89 1    
    42   20   21 2    
    43   20   22 1    
    44   22   23 1    
    45   22   24 1    
    46   22   90 1    
    47   23   91 1    
    48   23   92 1    
    49   23   93 1    
    50   24   25 am   BACKBONE|DICT|INTERRES
    51   24   94 1    
    52   25   26 2    
    53   25   27 1    
    54   27   28 1    
    55   27   29 1    
    56   27   95 1    
    57   28   96 1    
    58   28   97 1    
    59   28   98 1    
    60   29   30 am   BACKBONE|DICT|INTERRES
    61   29   99 1    
    62   30   31 2    
    63   30   32 1    
    64   32   33 1    
    65   32   34 1    
    66   32  100 1    
    67   33  101 1    
    68   33  102 1    
    69   33  103 1    
    70   34   35 am   BACKBONE|DICT|INTERRES
    71   34  104 1    
    72   35   36 2    
    73   37   38 2    
    74   37   39 am   BACKBONE|DICT|INTERRES
    75   39   40 1    
    76   39  105 1    
    77   40   41 1    
    78   40   42 1    
    79   40  106 1    
    80   41  107 1    
    81   41  108 1    
    82   41  109 1    
    83   42   43 2    
    84   42   44 am   BACKBONE|DICT|INTERRES
    85   44   45 1    
    86   44  110 1    
    87   45   46 1    
    88   45   47 1    
    89   45  111 1    
    90   46  112 1    
    91   46  113 1    
    92   46  114 1    
    93   47   48 2    
    94   47   49 am   BACKBONE|DICT|INTERRES
    95   49   50 1    
    96   49  115 1    
    97   50   51 1    
    98   50   52 1    
    99   50  116 1    
   100   51  117 1    
   101   51  118 1    
   102   51  119 1    
   103   52   53 2    
   104   52   54 am   BACKBONE|DICT|INTERRES
   105   54   55 1    
   106   54  120 1    
   107   55   56 1    
   108   55   57 1    
   109   55  121 1    
   110   56  122 1    
   111   56  123 1    
   112   56  124 1    
   113   57   58 2    
   114   57   59 am   BACKBONE|DICT|INTERRES
   115   59   60 1    
   116   59  125 1    
   117   60   61 1    
   118   60   62 1    
   119   60  126 1    
   120   61  127 1    
   121   61  128 1    
   122   61  129 1    
   123   62   63 2    
   124   62   64 am   BACKBONE|DICT|INTERRES
   125   64   65 1    
   126   64  130 1    
   127   65   66 1    
   128   65   69 1    
   129   65  131 1    
   130   66   67 am   BACKBONE|DICT|INTERRES
   131   66   68 2    
   132   67  132 1    
   133   67  133 1    
   134   69   70 1    
   135   69  134 1    
   136   69  135 1    
   137   70   71 1    
   138   71  136 1    
   139   71  137 1    
@<TRIPOS>SUBSTRUCTURE
     1 UNK         1 GROUP             0       ****    0 ROOT    
