@<TRIPOS>MOLECULE
3R137
137   139    1
SMALL
USER_CHARGES


@<TRIPOS>ATOM
      1 CA         25.1638   -5.2216   -2.6570 C.3       0 UNK        -0.2020 
      2 C          25.4218   -4.3809   -1.4158 C.2       0 UNK         0.4855 
      3 O          24.6364   -4.4218   -0.4680 O.2       0 UNK        -0.5197 
      4 N          26.5174   -3.6141   -1.4081 N.am      1 UNK        -0.4892 
      5 CA         26.9744   -2.7718   -0.2956 C.3       1 UNK         0.0835 
      6 C6         28.5223   -2.6310   -0.2732 C.3       12 UNK        -0.0855 
      7 S7         29.2635   -2.2414   -1.8982 S.3       12 UNK        -0.2931 
      8 C8         30.2383   -3.7428   -2.2132 C.3       12 UNK         0.0378 
      9 C9         30.7394   -3.7902   -3.6489 C.ar      12 UNK        -0.0802 
     10 C10        31.8734   -3.0653   -4.0276 C.ar      12 UNK        -0.0944 
     11 C11        32.3614   -3.1307   -5.3404 C.ar      12 UNK        -0.0787 
     12 C12        31.6979   -3.9412   -6.2699 C.ar      12 UNK        -0.0862 
     13 C13        30.5709   -4.6829   -5.8994 C.ar      12 UNK        -0.0733 
     14 C14        30.0921   -4.5948   -4.5894 C.ar      12 UNK        -0.0832 
     15 C15        29.9115   -5.6355   -6.8900 C.3       12 UNK         0.0240 
     16 S16        28.8511   -4.7890   -8.1026 S.3       12 UNK        -0.2522 
     17 C17        27.4762   -4.1889   -7.0600 C.3       12 UNK        -0.0967 
     18 CA         26.8547   -2.8742   -7.5998 C.3       5 UNK         0.0660 
     19 N          25.5661   -2.5249   -6.9921 N.am      5 UNK        -0.4015 
     20 C          25.3140   -2.3114   -5.6950 C.2       4 UNK         0.4946 
     21 O          26.1221   -2.5220   -4.7861 O.2       4 UNK        -0.5353 
     22 CA         23.9400   -1.7062   -5.3657 C.3       4 UNK         0.0277 
     23 CB         23.0034   -2.7686   -4.7712 C.3       4 UNK        -0.1981 
     24 N          24.0528   -0.5910   -4.4254 N.am      4 UNK        -0.4209 
     25 C          24.8136    0.5018   -4.5703 C.2       3 UNK         0.4942 
     26 O          25.4562    0.7545   -5.5906 O.2       3 UNK        -0.5208 
     27 CA         24.9002    1.4758   -3.3791 C.3       3 UNK         0.0250 
     28 CB         23.9012    2.6369   -3.5452 C.3       3 UNK        -0.1990 
     29 N          24.7892    0.8517   -2.0486 N.am      3 UNK        -0.4232 
     30 C          23.7397    0.2401   -1.4806 C.2       2 UNK         0.4993 
     31 O          22.6539    0.0813   -2.0409 O.2       2 UNK        -0.5286 
     32 CA         23.9727   -0.3523   -0.0791 C.3       2 UNK         0.0209 
     33 CB         22.6634   -0.8005    0.5973 C.3       2 UNK        -0.1931 
     34 N          24.8876   -1.4946   -0.1334 N.am      2 UNK        -0.4546 
     35 C          26.2188   -1.4238   -0.2578 C.2       1 UNK         0.5154 
     36 O          26.8250   -0.3530   -0.3438 O.2       1 UNK        -0.5181 
     37 C          27.8434   -1.6899   -7.5695 C.2       5 UNK         0.5014 
     38 O          28.3206   -1.2906   -8.6313 O.2       5 UNK        -0.5248 
     39 N          28.1112   -1.1319   -6.3810 N.am      6 UNK        -0.4434 
     40 CA         29.0822   -0.0626   -6.1356 C.3       6 UNK         0.0363 
     41 CB         29.0710    0.3279   -4.6524 C.3       6 UNK        -0.1936 
     42 C          28.9139    1.1836   -7.0162 C.2       6 UNK         0.5081 
     43 O          29.9139    1.7001   -7.5153 O.2       6 UNK        -0.5248 
     44 N          27.6658    1.6247   -7.2189 N.am      7 UNK        -0.4718 
     45 CA         27.3234    2.7634   -8.0753 C.3       7 UNK         0.0273 
     46 CB         25.8582    3.1577   -7.8313 C.3       7 UNK        -0.1935 
     47 C          27.5711    2.5089   -9.5738 C.2       7 UNK         0.5018 
     48 O          27.8542    3.4609  -10.3014 O.2       7 UNK        -0.5186 
     49 N          27.4681    1.2451  -10.0083 N.am      8 UNK        -0.4240 
     50 CA         27.7378    0.8194  -11.3838 C.3       8 UNK         0.0235 
     51 CB         26.9019   -0.4287  -11.7134 C.3       8 UNK        -0.2000 
     52 C          29.2339    0.5485  -11.6007 C.2       8 UNK         0.4941 
     53 O          29.7774    0.9339  -12.6360 O.2       8 UNK        -0.5273 
     54 N          29.8737   -0.0931  -10.6133 N.am      9 UNK        -0.4262 
     55 CA         31.3031   -0.4110  -10.5917 C.3       9 UNK         0.0264 
     56 CB         31.5598   -1.4479   -9.4834 C.3       9 UNK        -0.1955 
     57 C          32.2114    0.8162  -10.3901 C.2       9 UNK         0.5031 
     58 O          33.4036    0.7232  -10.6855 O.2       9 UNK        -0.5390 
     59 N          31.6456    1.9168   -9.8693 N.am      10 UNK        -0.4204 
     60 CA         32.3167    3.1401   -9.4117 C.3       10 UNK         0.0237 
     61 CB         33.0111    3.8791  -10.5759 C.3       10 UNK        -0.1985 
     62 C          33.2486    2.8482   -8.2201 C.2       10 UNK         0.4970 
     63 O          34.3955    3.2986   -8.1959 O.2       10 UNK        -0.4914 
     64 N          32.7277    2.0682   -7.2650 N.am      11 UNK        -0.4285 
     65 CA         33.4401    1.5944   -6.0704 C.3       11 UNK         0.1007 
     66 C          33.6031    2.6654   -4.9514 C.2       11 UNK         0.5703 
     67 N          32.8956    3.7886   -5.0005 N.am      11 UNK        -0.7361 
     68 O          34.3959    2.4838   -4.0308 O.2       11 UNK        -0.4986 
     69 C69        32.7993    0.2825   -5.5384 C.3       12 UNK        -0.0947 
     70 S70        34.0204   -0.8775   -4.8449 S.3       12 UNK        -0.2240 
     71 C71        33.6434   -2.4101   -5.7669 C.3       12 UNK         0.0194 
     72 H72        25.4328   -6.2599   -2.4656 H         1 UNK         0.0906 
     73 H73        24.1087   -5.1911   -2.9254 H         1 UNK         0.0906 
     74 H74        25.7422   -4.8711   -3.5114 H         1 UNK         0.0906 
     75 H75        27.0867   -3.5481   -2.2421 H         1 UNK         0.3140 
     76 H76        26.7043   -3.2724    0.6374 H         1 UNK         0.1085 
     77 H77        28.8382   -1.8735    0.4468 H         1 UNK         0.0836 
     78 H78        28.9538   -3.5628    0.0954 H         1 UNK         0.0836 
     79 H79        31.0833   -3.7761   -1.5236 H         1 UNK         0.0731 
     80 H80        29.6299   -4.6229   -1.9983 H         1 UNK         0.0731 
     81 H81        32.3806   -2.4647   -3.2858 H         1 UNK         0.1312 
     82 H82        32.0759   -4.0212   -7.2802 H         1 UNK         0.1406 
     83 H83        29.2273   -5.1732   -4.2939 H         1 UNK         0.1631 
     84 H84        29.3220   -6.3904   -6.3672 H         1 UNK         0.0717 
     85 H85        30.6865   -6.1817   -7.4296 H         1 UNK         0.0717 
     86 H86        26.7177   -4.9722   -7.0274 H         1 UNK         0.0934 
     87 H87        27.8153   -4.0578   -6.0332 H         1 UNK         0.0934 
     88 H88        26.6198   -3.0437   -8.6523 H         1 UNK         0.0739 
     89 H89        24.8348   -2.3079   -7.6547 H         1 UNK         0.3093 
     90 H90        23.4924   -1.3163   -6.2820 H         1 UNK         0.0818 
     91 H91        21.9944   -2.3771   -4.6401 H         1 UNK         0.0819 
     92 H92        22.9312   -3.6418   -5.4211 H         1 UNK         0.0819 
     93 H93        23.3557   -3.1094   -3.7977 H         1 UNK         0.0819 
     94 H94        23.5192   -0.6588   -3.5642 H         1 UNK         0.3041 
     95 H95        25.9036    1.9032   -3.4136 H         1 UNK         0.0784 
     96 H96        24.0639    3.1557   -4.4910 H         1 UNK         0.0793 
     97 H97        22.8673    2.2906   -3.5414 H         1 UNK         0.0793 
     98 H98        24.0122    3.3728   -2.7489 H         1 UNK         0.0793 
     99 H99        25.6581    0.8105   -1.5226 H         1 UNK         0.3024 
    100 H100       24.4165    0.4321    0.5388 H         1 UNK         0.1171 
    101 H101       21.9529    0.0251    0.6589 H         1 UNK         0.0786 
    102 H102       22.8423   -1.1488    1.6147 H         1 UNK         0.0786 
    103 H103       22.1790   -1.6085    0.0474 H         1 UNK         0.0786 
    104 H104       24.4724   -2.4213   -0.1236 H         1 UNK         0.2977 
    105 H105       27.6236   -1.5093   -5.5730 H         1 UNK         0.3127 
    106 H106       30.0594   -0.4848   -6.3668 H         1 UNK         0.0770 
    107 H107       29.4811   -0.4754   -4.0453 H         1 UNK         0.0814 
    108 H108       28.0642    0.5462   -4.2955 H         1 UNK         0.0814 
    109 H109       29.6840    1.2110   -4.4663 H         1 UNK         0.0814 
    110 H110       26.8980    1.1700   -6.7269 H         1 UNK         0.2983 
    111 H111       27.9560    3.6040   -7.7815 H         1 UNK         0.0947 
    112 H112       25.5763    4.0179   -8.4402 H         1 UNK         0.0806 
    113 H113       25.6900    3.4292   -6.7889 H         1 UNK         0.0806 
    114 H114       25.1758    2.3431   -8.0774 H         1 UNK         0.0806 
    115 H115       27.3063    0.5136   -9.3275 H         1 UNK         0.3000 
    116 H116       27.4380    1.6144  -12.0705 H         1 UNK         0.0850 
    117 H117       27.0679   -0.7457  -12.7439 H         1 UNK         0.0810 
    118 H118       25.8355   -0.2307  -11.6039 H         1 UNK         0.0810 
    119 H119       27.1538   -1.2722  -11.0698 H         1 UNK         0.0810 
    120 H120       29.3236   -0.4370   -9.8257 H         1 UNK         0.3040 
    121 H121       31.5657   -0.8594  -11.5520 H         1 UNK         0.0766 
    122 H122       32.6112   -1.7365   -9.4496 H         1 UNK         0.0812 
    123 H123       30.9787   -2.3562   -9.6459 H         1 UNK         0.0812 
    124 H124       31.2958   -1.0582   -8.4999 H         1 UNK         0.0812 
    125 H125       30.6739    1.8381   -9.5946 H         1 UNK         0.3205 
    126 H126       31.5300    3.7934   -9.0312 H         1 UNK         0.0754 
    127 H127       33.3912    4.8476  -10.2490 H         1 UNK         0.0769 
    128 H128       32.3180    4.0628  -11.3969 H         1 UNK         0.0769 
    129 H129       33.8576    3.3168  -10.9709 H         1 UNK         0.0769 
    130 H130       31.7479    1.8053   -7.3437 H         1 UNK         0.2981 
    131 H131       34.4535    1.3586   -6.4016 H         1 UNK         0.0541 
    132 H132       32.2447    3.9502   -5.7517 H         1 UNK         0.3459 
    133 H133       33.0146    4.4789   -4.2760 H         1 UNK         0.3459 
    134 H134       32.2932   -0.2354   -6.3526 H         1 UNK         0.0612 
    135 H135       32.0307    0.4811   -4.7902 H         1 UNK         0.0612 
    136 H136       33.6123   -2.1779   -6.8328 H         1 UNK         0.0624 
    137 H137       34.4770   -3.0995   -5.6288 H         1 UNK         0.0624 
@<TRIPOS>BOND
     1    1    2 1    
     2    1   72 1    
     3    1   73 1    
     4    1   74 1    
     5    2    3 2    
     6    2    4 am   BACKBONE|DICT|INTERRES
     7    4    5 1    
     8    4   75 1    
     9    5    6 1    
    10    5   35 1    
    11    5   76 1    
    12    6    7 1    
    13    6   77 1    
    14    6   78 1    
    15    7    8 1    
    16    8    9 1    
    17    8   79 1    
    18    8   80 1    
    19    9   10 ar   
    20    9   14 ar   
    21   10   11 ar   
    22   10   81 1    
    23   11   12 ar   
    24   11   71 1    
    25   12   13 ar   
    26   12   82 1    
    27   13   14 ar   
    28   13   15 1    
    29   14   83 1    
    30   15   16 1    
    31   15   84 1    
    32   15   85 1    
    33   16   17 1    
    34   17   18 1    
    35   17   86 1    
    36   17   87 1    
    37   18   19 1    
    38   18   37 1    
    39   18   88 1    
    40   19   20 am   BACKBONE|DICT|INTERRES
    41   19   89 1    
    42   20   21 2    
    43   20   22 1    
    44   22   23 1    
    45   22   24 1    
    46   22   90 1    
    47   23   91 1    
    48   23   92 1    
    49   23   93 1    
    50   24   25 am   BACKBONE|DICT|INTERRES
    51   24   94 1    
    52   25   26 2    
    53   25   27 1    
    54   27   28 1    
    55   27   29 1    
    56   27   95 1    
    57   28   96 1    
    58   28   97 1    
    59   28   98 1    
    60   29   30 am   BACKBONE|DICT|INTERRES
    61   29   99 1    
    62   30   31 2    
    63   30   32 1    
    64   32   33 1    
    65   32   34 1    
    66   32  100 1    
    67   33  101 1    
    68   33  102 1    
    69   33  103 1    
    70   34   35 am   BACKBONE|DICT|INTERRES
    71   34  104 1    
    72   35   36 2    
    73   37   38 2    
    74   37   39 am   BACKBONE|DICT|INTERRES
    75   39   40 1    
    76   39  105 1    
    77   40   41 1    
    78   40   42 1    
    79   40  106 1    
    80   41  107 1    
    81   41  108 1    
    82   41  109 1    
    83   42   43 2    
    84   42   44 am   BACKBONE|DICT|INTERRES
    85   44   45 1    
    86   44  110 1    
    87   45   46 1    
    88   45   47 1    
    89   45  111 1    
    90   46  112 1    
    91   46  113 1    
    92   46  114 1    
    93   47   48 2    
    94   47   49 am   BACKBONE|DICT|INTERRES
    95   49   50 1    
    96   49  115 1    
    97   50   51 1    
    98   50   52 1    
    99   50  116 1    
   100   51  117 1    
   101   51  118 1    
   102   51  119 1    
   103   52   53 2    
   104   52   54 am   BACKBONE|DICT|INTERRES
   105   54   55 1    
   106   54  120 1    
   107   55   56 1    
   108   55   57 1    
   109   55  121 1    
   110   56  122 1    
   111   56  123 1    
   112   56  124 1    
   113   57   58 2    
   114   57   59 am   BACKBONE|DICT|INTERRES
   115   59   60 1    
   116   59  125 1    
   117   60   61 1    
   118   60   62 1    
   119   60  126 1    
   120   61  127 1    
   121   61  128 1    
   122   61  129 1    
   123   62   63 2    
   124   62   64 am   BACKBONE|DICT|INTERRES
   125   64   65 1    
   126   64  130 1    
   127   65   66 1    
   128   65   69 1    
   129   65  131 1    
   130   66   67 am   BACKBONE|DICT|INTERRES
   131   66   68 2    
   132   67  132 1    
   133   67  133 1    
   134   69   70 1    
   135   69  134 1    
   136   69  135 1    
   137   70   71 1    
   138   71  136 1    
   139   71  137 1    
@<TRIPOS>SUBSTRUCTURE
     1 UNK         1 GROUP             0       ****    0 ROOT    
