@<TRIPOS>MOLECULE
3R137
137   139    1
SMALL
USER_CHARGES


@<TRIPOS>ATOM
      1 CA         25.2094   -6.3351    1.1433 C.3       0 UNK        -0.2020 
      2 C          25.5698   -4.8571    1.1497 C.2       0 UNK         0.4855 
      3 O          25.0973   -4.1162    2.0121 O.2       0 UNK        -0.5197 
      4 N          26.4049   -4.4230    0.1956 N.am      1 UNK        -0.4892 
      5 CA         26.8404   -3.0275    0.0355 C.3       1 UNK         0.0835 
      6 C6         28.0921   -2.9343   -0.8757 C.3       12 UNK        -0.0855 
      7 S7         29.1971   -1.5562   -0.4190 S.3       12 UNK        -0.2931 
      8 C8         30.8153   -2.1875   -0.9674 C.3       12 UNK         0.0378 
      9 C9         30.9201   -2.2309   -2.4855 C.ar      12 UNK        -0.0802 
     10 C10        31.3958   -1.1206   -3.1894 C.ar      12 UNK        -0.0944 
     11 C11        31.4997   -1.1567   -4.5832 C.ar      12 UNK        -0.0787 
     12 C12        31.1349   -2.3167   -5.2705 C.ar      12 UNK        -0.0862 
     13 C13        30.6367   -3.4265   -4.5816 C.ar      12 UNK        -0.0733 
     14 C14        30.5455   -3.3812   -3.1873 C.ar      12 UNK        -0.0832 
     15 C15        30.2074   -4.6820   -5.3324 C.3       12 UNK         0.0240 
     16 S16        29.0723   -4.3487   -6.7218 S.3       12 UNK        -0.2522 
     17 C17        27.6143   -3.6222   -5.8953 C.3       12 UNK        -0.0967 
     18 CA         27.1504   -2.3183   -6.5978 C.3       5 UNK         0.0660 
     19 N          25.7041   -2.1209   -6.4992 N.am      5 UNK        -0.4015 
     20 C          24.8655   -2.0823   -7.5451 C.2       4 UNK         0.4946 
     21 O          25.1896   -2.3652   -8.6991 O.2       4 UNK        -0.5353 
     22 CA         23.4121   -1.6376   -7.2818 C.3       4 UNK         0.0277 
     23 CB         22.4863   -2.8621   -7.1937 C.3       4 UNK        -0.1981 
     24 N          23.2318   -0.8164   -6.0811 N.am      4 UNK        -0.4209 
     25 C          23.8559    0.3416   -5.8196 C.2       3 UNK         0.4942 
     26 O          24.6317    0.8964   -6.5964 O.2       3 UNK        -0.5208 
     27 CA         23.6418    0.9449   -4.4209 C.3       3 UNK         0.0250 
     28 CB         22.5007    1.9733   -4.4538 C.3       3 UNK        -0.1990 
     29 N          23.3865   -0.0371   -3.3553 N.am      3 UNK        -0.4232 
     30 C          24.1473   -1.1017   -3.0571 C.2       2 UNK         0.4993 
     31 O          25.1461   -1.4405   -3.7010 O.2       2 UNK        -0.5286 
     32 CA         23.6653   -1.9754   -1.8898 C.3       2 UNK         0.0209 
     33 CB         22.6423   -3.0089   -2.3895 C.3       2 UNK        -0.1931 
     34 N          24.7785   -2.6829   -1.2575 N.am      2 UNK        -0.4546 
     35 C          25.7022   -2.1121   -0.4708 C.2       1 UNK         0.5154 
     36 O          25.6662   -0.9290   -0.1284 O.2       1 UNK        -0.5181 
     37 C          27.8888   -1.0702   -6.0783 C.2       5 UNK         0.5014 
     38 O          28.8125   -0.6021   -6.7430 O.2       5 UNK        -0.5248 
     39 N          27.4609   -0.5226   -4.9295 N.am      6 UNK        -0.4434 
     40 CA         28.1307    0.5790   -4.2296 C.3       6 UNK         0.0363 
     41 CB         27.4648    0.8064   -2.8645 C.3       6 UNK        -0.1936 
     42 C          28.2212    1.8992   -5.0145 C.2       6 UNK         0.5081 
     43 O          29.1665    2.6558   -4.7905 O.2       6 UNK        -0.5248 
     44 N          27.2609    2.1555   -5.9126 N.am      7 UNK        -0.4718 
     45 CA         27.2418    3.3254   -6.7948 C.3       7 UNK         0.0273 
     46 CB         25.8839    4.0376   -6.6516 C.3       7 UNK        -0.1935 
     47 C          27.5299    2.9507   -8.2611 C.2       7 UNK         0.5018 
     48 O          27.3680    3.8058   -9.1342 O.2       7 UNK        -0.5186 
     49 N          27.9368    1.7002   -8.5258 N.am      8 UNK        -0.4240 
     50 CA         28.2898    1.2167   -9.8613 C.3       8 UNK         0.0235 
     51 CB         28.0722   -0.3056   -9.9224 C.3       8 UNK        -0.2000 
     52 C          29.7415    1.5714  -10.2216 C.2       8 UNK         0.4941 
     53 O          30.5354    1.9445   -9.3537 O.2       8 UNK        -0.5273 
     54 N          30.0774    1.3871  -11.5058 N.am      9 UNK        -0.4262 
     55 CA         31.4041    1.6275  -12.0881 C.3       9 UNK         0.0264 
     56 CB         31.3038    1.5163  -13.6187 C.3       9 UNK        -0.1955 
     57 C          32.5269    0.7142  -11.5545 C.2       9 UNK         0.5031 
     58 O          33.6964    0.9978  -11.8161 O.2       9 UNK        -0.5390 
     59 N          32.1713   -0.3403  -10.8056 N.am      10 UNK        -0.4204 
     60 CA         33.0751   -1.2944  -10.1532 C.3       10 UNK         0.0237 
     61 CB         32.2337   -2.3261   -9.3825 C.3       10 UNK        -0.1985 
     62 C          34.1218   -0.6549   -9.2192 C.2       10 UNK         0.4970 
     63 O          35.2214   -1.1973   -9.1011 O.2       10 UNK        -0.4914 
     64 N          33.7725    0.4797   -8.6000 N.am      11 UNK        -0.4285 
     65 CA         34.6719    1.3049   -7.7769 C.3       11 UNK         0.1007 
     66 C          35.1953    2.5690   -8.5219 C.2       11 UNK         0.5703 
     67 N          34.9941    2.7170   -9.8265 N.am      11 UNK        -0.7361 
     68 O          35.8211    3.4319   -7.9102 O.2       11 UNK        -0.4986 
     69 C69        34.0299    1.6519   -6.4069 C.3       12 UNK        -0.0947 
     70 S70        33.7805    0.1686   -5.3761 S.3       12 UNK        -0.2240 
     71 C71        31.9691    0.0681   -5.3509 C.3       12 UNK         0.0194 
     72 H72        24.1330   -6.4579    1.0256 H         1 UNK         0.0906 
     73 H73        25.7024   -6.8733    0.3340 H         1 UNK         0.0906 
     74 H74        25.5038   -6.7969    2.0854 H         1 UNK         0.0906 
     75 H75        26.7681   -5.0819   -0.4790 H         1 UNK         0.3140 
     76 H76        27.1115   -2.6694    1.0318 H         1 UNK         0.1085 
     77 H77        28.6741   -3.8527   -0.7870 H         1 UNK         0.0836 
     78 H78        27.8249   -2.8520   -1.9319 H         1 UNK         0.0836 
     79 H79        31.5971   -1.5425   -0.5632 H         1 UNK         0.0731 
     80 H80        30.9924   -3.1764   -0.5416 H         1 UNK         0.0731 
     81 H81        31.6760   -0.2233   -2.6546 H         1 UNK         0.1312 
     82 H82        31.2058   -2.3440   -6.3484 H         1 UNK         0.1406 
     83 H83        30.1787   -4.2422   -2.6461 H         1 UNK         0.1631 
     84 H84        29.7291   -5.3949   -4.6589 H         1 UNK         0.0717 
     85 H85        31.0985   -5.1761   -5.7213 H         1 UNK         0.0717 
     86 H86        26.8255   -4.3746   -5.9455 H         1 UNK         0.0934 
     87 H87        27.8020   -3.4665   -4.8309 H         1 UNK         0.0934 
     88 H88        27.4152   -2.3967   -7.6544 H         1 UNK         0.0739 
     89 H89        25.3452   -1.8832   -5.5792 H         1 UNK         0.3093 
     90 H90        23.1034   -1.0322   -8.1365 H         1 UNK         0.0818 
     91 H91        21.4404   -2.5658   -7.1117 H         1 UNK         0.0819 
     92 H92        22.5746   -3.4833   -8.0863 H         1 UNK         0.0819 
     93 H93        22.7278   -3.4900   -6.3350 H         1 UNK         0.0819 
     94 H94        22.6177   -1.1876   -5.3714 H         1 UNK         0.3041 
     95 H95        24.5586    1.4754   -4.1628 H         1 UNK         0.0784 
     96 H96        22.6771    2.7276   -5.2225 H         1 UNK         0.0793 
     97 H97        21.5397    1.5051   -4.6709 H         1 UNK         0.0793 
     98 H98        22.4120    2.5000   -3.5034 H         1 UNK         0.0793 
     99 H99        22.5727    0.1407   -2.7835 H         1 UNK         0.3024 
    100 H100       23.1930   -1.3358   -1.1404 H         1 UNK         0.1171 
    101 H101       23.0684   -3.6646   -3.1505 H         1 UNK         0.0786 
    102 H102       21.7716   -2.5212   -2.8300 H         1 UNK         0.0786 
    103 H103       22.2800   -3.6344   -1.5733 H         1 UNK         0.0786 
    104 H104       24.8948   -3.6559   -1.4975 H         1 UNK         0.2977 
    105 H105       26.6668   -0.9358   -4.4425 H         1 UNK         0.3127 
    106 H106       29.1532    0.2537   -4.0434 H         1 UNK         0.0770 
    107 H107       26.4521    1.1929   -2.9615 H         1 UNK         0.0814 
    108 H108       28.0314    1.5246   -2.2708 H         1 UNK         0.0814 
    109 H109       27.4130   -0.1172   -2.2897 H         1 UNK         0.0814 
    110 H110       26.5089    1.4869   -6.0512 H         1 UNK         0.2983 
    111 H111       28.0187    4.0351   -6.5030 H         1 UNK         0.0947 
    112 H112       25.8771    4.9796   -7.2013 H         1 UNK         0.0806 
    113 H113       25.6649    4.2713   -5.6097 H         1 UNK         0.0806 
    114 H114       25.0649    3.4322   -7.0397 H         1 UNK         0.0806 
    115 H115       28.1407    1.0745   -7.7534 H         1 UNK         0.3000 
    116 H116       27.6285    1.6872  -10.5926 H         1 UNK         0.0850 
    117 H117       28.1597   -0.6776  -10.9436 H         1 UNK         0.0810 
    118 H118       27.0775   -0.5772   -9.5692 H         1 UNK         0.0810 
    119 H119       28.8015   -0.8468   -9.3191 H         1 UNK         0.0810 
    120 H120       29.3649    1.0661  -12.1465 H         1 UNK         0.3040 
    121 H121       31.6894    2.6519  -11.8392 H         1 UNK         0.0766 
    122 H122       32.2638    1.7301  -14.0911 H         1 UNK         0.0812 
    123 H123       30.5835    2.2276  -14.0235 H         1 UNK         0.0812 
    124 H124       31.0031    0.5158  -13.9322 H         1 UNK         0.0812 
    125 H125       31.1849   -0.4797  -10.6474 H         1 UNK         0.3205 
    126 H126       33.6220   -1.8143  -10.9423 H         1 UNK         0.0754 
    127 H127       32.8696   -3.0457   -8.8645 H         1 UNK         0.0769 
    128 H128       31.5869   -2.8928  -10.0526 H         1 UNK         0.0769 
    129 H129       31.6022   -1.8484   -8.6324 H         1 UNK         0.0769 
    130 H130       32.8543    0.8659   -8.7723 H         1 UNK         0.2981 
    131 H131       35.5778    0.7362   -7.5602 H         1 UNK         0.0541 
    132 H132       35.3525    3.5412  -10.2812 H         1 UNK         0.3459 
    133 H133       34.5317    2.0030  -10.3799 H         1 UNK         0.3459 
    134 H134       33.0855    2.1809   -6.5468 H         1 UNK         0.0612 
    135 H135       34.6721    2.3234   -5.8346 H         1 UNK         0.0612 
    136 H136       31.5612    0.9709   -4.8937 H         1 UNK         0.0624 
    137 H137       31.5919    0.0426   -6.3749 H         1 UNK         0.0624 
@<TRIPOS>BOND
     1    1    2 1    
     2    1   72 1    
     3    1   73 1    
     4    1   74 1    
     5    2    3 2    
     6    2    4 am   BACKBONE|DICT|INTERRES
     7    4    5 1    
     8    4   75 1    
     9    5    6 1    
    10    5   35 1    
    11    5   76 1    
    12    6    7 1    
    13    6   77 1    
    14    6   78 1    
    15    7    8 1    
    16    8    9 1    
    17    8   79 1    
    18    8   80 1    
    19    9   10 ar   
    20    9   14 ar   
    21   10   11 ar   
    22   10   81 1    
    23   11   12 ar   
    24   11   71 1    
    25   12   13 ar   
    26   12   82 1    
    27   13   14 ar   
    28   13   15 1    
    29   14   83 1    
    30   15   16 1    
    31   15   84 1    
    32   15   85 1    
    33   16   17 1    
    34   17   18 1    
    35   17   86 1    
    36   17   87 1    
    37   18   19 1    
    38   18   37 1    
    39   18   88 1    
    40   19   20 am   BACKBONE|DICT|INTERRES
    41   19   89 1    
    42   20   21 2    
    43   20   22 1    
    44   22   23 1    
    45   22   24 1    
    46   22   90 1    
    47   23   91 1    
    48   23   92 1    
    49   23   93 1    
    50   24   25 am   BACKBONE|DICT|INTERRES
    51   24   94 1    
    52   25   26 2    
    53   25   27 1    
    54   27   28 1    
    55   27   29 1    
    56   27   95 1    
    57   28   96 1    
    58   28   97 1    
    59   28   98 1    
    60   29   30 am   BACKBONE|DICT|INTERRES
    61   29   99 1    
    62   30   31 2    
    63   30   32 1    
    64   32   33 1    
    65   32   34 1    
    66   32  100 1    
    67   33  101 1    
    68   33  102 1    
    69   33  103 1    
    70   34   35 am   BACKBONE|DICT|INTERRES
    71   34  104 1    
    72   35   36 2    
    73   37   38 2    
    74   37   39 am   BACKBONE|DICT|INTERRES
    75   39   40 1    
    76   39  105 1    
    77   40   41 1    
    78   40   42 1    
    79   40  106 1    
    80   41  107 1    
    81   41  108 1    
    82   41  109 1    
    83   42   43 2    
    84   42   44 am   BACKBONE|DICT|INTERRES
    85   44   45 1    
    86   44  110 1    
    87   45   46 1    
    88   45   47 1    
    89   45  111 1    
    90   46  112 1    
    91   46  113 1    
    92   46  114 1    
    93   47   48 2    
    94   47   49 am   BACKBONE|DICT|INTERRES
    95   49   50 1    
    96   49  115 1    
    97   50   51 1    
    98   50   52 1    
    99   50  116 1    
   100   51  117 1    
   101   51  118 1    
   102   51  119 1    
   103   52   53 2    
   104   52   54 am   BACKBONE|DICT|INTERRES
   105   54   55 1    
   106   54  120 1    
   107   55   56 1    
   108   55   57 1    
   109   55  121 1    
   110   56  122 1    
   111   56  123 1    
   112   56  124 1    
   113   57   58 2    
   114   57   59 am   BACKBONE|DICT|INTERRES
   115   59   60 1    
   116   59  125 1    
   117   60   61 1    
   118   60   62 1    
   119   60  126 1    
   120   61  127 1    
   121   61  128 1    
   122   61  129 1    
   123   62   63 2    
   124   62   64 am   BACKBONE|DICT|INTERRES
   125   64   65 1    
   126   64  130 1    
   127   65   66 1    
   128   65   69 1    
   129   65  131 1    
   130   66   67 am   BACKBONE|DICT|INTERRES
   131   66   68 2    
   132   67  132 1    
   133   67  133 1    
   134   69   70 1    
   135   69  134 1    
   136   69  135 1    
   137   70   71 1    
   138   71  136 1    
   139   71  137 1    
@<TRIPOS>SUBSTRUCTURE
     1 UNK         1 GROUP             0       ****    0 ROOT    
