@<TRIPOS>MOLECULE
3R137
137   139    1
SMALL
USER_CHARGES


@<TRIPOS>ATOM
      1 CA         31.0163   -2.7587   -6.1704 C.3       0 UNK        -0.2020 
      2 C          29.8431   -3.6957   -5.9309 C.2       0 UNK         0.4855 
      3 O          29.0986   -4.0086   -6.8599 O.2       0 UNK        -0.5197 
      4 N          29.6928   -4.1575   -4.6865 N.am      1 UNK        -0.4892 
      5 CA         28.6019   -5.0109   -4.2074 C.3       1 UNK         0.0835 
      6 C6         29.1062   -6.0663   -3.1753 C.3       12 UNK        -0.0855 
      7 S7         30.3979   -5.5197   -1.9994 S.3       12 UNK        -0.2931 
      8 C8         29.4997   -4.4496   -0.8239 C.3       12 UNK         0.0378 
      9 C9         29.6231   -2.9594   -1.1406 C.ar      12 UNK        -0.0802 
     10 C10        30.8470   -2.4039   -1.5334 C.ar      12 UNK        -0.0944 
     11 C11        30.9686   -1.0323   -1.7738 C.ar      12 UNK        -0.0787 
     12 C12        29.8542   -0.2055   -1.6049 C.ar      12 UNK        -0.0862 
     13 C13        28.6233   -0.7436   -1.2185 C.ar      12 UNK        -0.0733 
     14 C14        28.5173   -2.1179   -0.9810 C.ar      12 UNK        -0.0832 
     15 C15        27.4127    0.1606   -1.0344 C.3       12 UNK         0.0240 
     16 S16        26.3363    0.1699   -2.5034 S.3       12 UNK        -0.2522 
     17 C17        27.3293    1.1263   -3.7041 C.3       12 UNK        -0.0967 
     18 CA         28.0204    0.2160   -4.7597 C.3       5 UNK         0.0660 
     19 N          27.0472   -0.5836   -5.5101 N.am      5 UNK        -0.4015 
     20 C          26.2739   -0.1916   -6.5348 C.2       4 UNK         0.4946 
     21 O          26.3438    0.9088   -7.0871 O.2       4 UNK        -0.5353 
     22 CA         25.2005   -1.1856   -7.0002 C.3       4 UNK         0.0277 
     23 CB         25.8194   -2.3629   -7.7674 C.3       4 UNK        -0.1981 
     24 N          24.3968   -1.6820   -5.8847 N.am      4 UNK        -0.4209 
     25 C          23.5066   -0.9552   -5.1965 C.2       3 UNK         0.4942 
     26 O          23.2112    0.2065   -5.4786 O.2       3 UNK        -0.5208 
     27 CA         22.8254   -1.6187   -3.9840 C.3       3 UNK         0.0250 
     28 CB         21.5707   -2.4070   -4.4094 C.3       3 UNK        -0.1990 
     29 N          23.7236   -2.4288   -3.1471 N.am      3 UNK        -0.4232 
     30 C          24.3496   -3.5732   -3.4536 C.2       2 UNK         0.4993 
     31 O          24.2140   -4.1759   -4.5217 O.2       2 UNK        -0.5286 
     32 CA         25.3048   -4.1255   -2.3848 C.3       2 UNK         0.0209 
     33 CB         24.5776   -5.1273   -1.4739 C.3       2 UNK        -0.1931 
     34 N          26.4839   -4.7732   -2.9663 N.am      2 UNK        -0.4546 
     35 C          27.4091   -4.1570   -3.7172 C.2       1 UNK         0.5154 
     36 O          27.3326   -2.9657   -4.0255 O.2       1 UNK        -0.5181 
     37 C          28.9957    0.9559   -5.7025 C.2       5 UNK         0.5014 
     38 O          29.7152    0.3001   -6.4551 O.2       5 UNK        -0.5248 
     39 N          28.9789    2.2938   -5.6723 N.am      6 UNK        -0.4434 
     40 CA         29.6990    3.1669   -6.5994 C.3       6 UNK         0.0363 
     41 CB         30.6237    4.0931   -5.7885 C.3       6 UNK        -0.1936 
     42 C          28.7214    3.9617   -7.4906 C.2       6 UNK         0.5081 
     43 O          29.1233    4.9717   -8.0701 O.2       6 UNK        -0.5248 
     44 N          27.4534    3.5284   -7.5642 N.am      7 UNK        -0.4718 
     45 CA         26.3861    4.1858   -8.3218 C.3       7 UNK         0.0273 
     46 CB         25.1029    4.2132   -7.4738 C.3       7 UNK        -0.1935 
     47 C          26.1332    3.4797   -9.6609 C.2       7 UNK         0.5018 
     48 O          26.0314    4.1543  -10.6862 O.2       7 UNK        -0.5186 
     49 N          26.0456    2.1435   -9.6297 N.am      8 UNK        -0.4240 
     50 CA         25.8349    1.2792  -10.7979 C.3       8 UNK         0.0235 
     51 CB         24.4483    0.6177  -10.7000 C.3       8 UNK        -0.2000 
     52 C          26.9609    0.2395  -10.9441 C.2       8 UNK         0.4941 
     53 O          26.7888   -0.7535  -11.6523 O.2       8 UNK        -0.5273 
     54 N          28.0929    0.4887  -10.2820 N.am      9 UNK        -0.4262 
     55 CA         29.3273   -0.2865  -10.3015 C.3       9 UNK         0.0264 
     56 CB         29.1742   -1.5689   -9.4569 C.3       9 UNK        -0.1955 
     57 C          30.4469    0.6452   -9.8102 C.2       9 UNK         0.5031 
     58 O          30.2457    1.8635   -9.7804 O.2       9 UNK        -0.5390 
     59 N          31.5993    0.0806   -9.4398 N.am      10 UNK        -0.4204 
     60 CA         32.7115    0.8003   -8.8288 C.3       10 UNK         0.0237 
     61 CB         33.7498    1.1706   -9.9020 C.3       10 UNK        -0.1985 
     62 C          33.3255   -0.0908   -7.7475 C.2       10 UNK         0.4970 
     63 O          33.4563   -1.2983   -7.9612 O.2       10 UNK        -0.4914 
     64 N          33.7080    0.5270   -6.6264 N.am      11 UNK        -0.4285 
     65 CA         34.3585   -0.1292   -5.4811 C.3       11 UNK         0.1007 
     66 C          35.8957   -0.3160   -5.6441 C.2       11 UNK         0.5703 
     67 N          36.5285    0.2091   -6.6872 N.am      11 UNK        -0.7361 
     68 O          36.5265   -0.9635   -4.8119 O.2       11 UNK        -0.4986 
     69 C69        34.0096    0.6008   -4.1574 C.3       12 UNK        -0.0947 
     70 S70        32.2354    0.4512   -3.7581 S.3       12 UNK        -0.2240 
     71 C71        32.3154   -0.4482   -2.1777 C.3       12 UNK         0.0194 
     72 H72        31.2578   -2.1829   -5.2766 H         1 UNK         0.0906 
     73 H73        31.8994   -3.3223   -6.4697 H         1 UNK         0.0906 
     74 H74        30.7837   -2.0510   -6.9640 H         1 UNK         0.0906 
     75 H75        30.3189   -3.8437   -3.9580 H         1 UNK         0.3140 
     76 H76        28.2039   -5.5683   -5.0584 H         1 UNK         0.1085 
     77 H77        28.3003   -6.5499   -2.6226 H         1 UNK         0.0836 
     78 H78        29.5615   -6.8810   -3.7406 H         1 UNK         0.0836 
     79 H79        28.4543   -4.7572   -0.7747 H         1 UNK         0.0731 
     80 H80        29.9121   -4.6159    0.1721 H         1 UNK         0.0731 
     81 H81        31.7149   -3.0405   -1.6365 H         1 UNK         0.1312 
     82 H82        29.9489    0.8576   -1.7778 H         1 UNK         0.1406 
     83 H83        27.5704   -2.5295   -0.6629 H         1 UNK         0.1631 
     84 H84        27.7221    1.1798   -0.7978 H         1 UNK         0.0717 
     85 H85        26.8301   -0.1824   -0.1782 H         1 UNK         0.0717 
     86 H86        26.6562    1.8350   -4.1904 H         1 UNK         0.0934 
     87 H87        28.0633    1.7194   -3.1563 H         1 UNK         0.0934 
     88 H88        28.6373   -0.5051   -4.2213 H         1 UNK         0.0739 
     89 H89        26.9329   -1.5230   -5.1355 H         1 UNK         0.3093 
     90 H90        24.5281   -0.6549   -7.6752 H         1 UNK         0.0818 
     91 H91        25.0533   -3.0519   -8.1230 H         1 UNK         0.0819 
     92 H92        26.3626   -2.0072   -8.6426 H         1 UNK         0.0819 
     93 H93        26.5199   -2.9291   -7.1516 H         1 UNK         0.0819 
     94 H94        24.5468   -2.6413   -5.5819 H         1 UNK         0.3041 
     95 H95        22.4910   -0.8042   -3.3390 H         1 UNK         0.0784 
     96 H96        20.8640   -1.7583   -4.9286 H         1 UNK         0.0793 
     97 H97        21.8104   -3.2274   -5.0862 H         1 UNK         0.0793 
     98 H98        21.0530   -2.8246   -3.5459 H         1 UNK         0.0793 
     99 H99        23.9375   -2.0104   -2.2520 H         1 UNK         0.3024 
    100 H100       25.6563   -3.2896   -1.7773 H         1 UNK         0.1171 
    101 H101       23.7086   -4.6678   -1.0008 H         1 UNK         0.0786 
    102 H102       25.2279   -5.4837   -0.6747 H         1 UNK         0.0786 
    103 H103       24.2228   -5.9948   -2.0322 H         1 UNK         0.0786 
    104 H104       26.5740   -5.7640   -2.7992 H         1 UNK         0.2977 
    105 H105       28.3417    2.7577   -5.0411 H         1 UNK         0.3127 
    106 H106       30.3245    2.5771   -7.2695 H         1 UNK         0.0770 
    107 H107       30.0571    4.7603   -5.1382 H         1 UNK         0.0814 
    108 H108       31.2320    4.7151   -6.4464 H         1 UNK         0.0814 
    109 H109       31.3093    3.5181   -5.1654 H         1 UNK         0.0814 
    110 H110       27.2093    2.6432   -7.1275 H         1 UNK         0.2983 
    111 H111       26.6622    5.2200   -8.5398 H         1 UNK         0.0947 
    112 H112       24.2875    4.6944   -8.0157 H         1 UNK         0.0806 
    113 H113       25.2525    4.7733   -6.5508 H         1 UNK         0.0806 
    114 H114       24.7686    3.2102   -7.2044 H         1 UNK         0.0806 
    115 H115       26.1412    1.6722   -8.7303 H         1 UNK         0.3000 
    116 H116       25.8575    1.8744  -11.7130 H         1 UNK         0.0850 
    117 H117       24.2169    0.0586  -11.6075 H         1 UNK         0.0810 
    118 H118       24.3926   -0.0810   -9.8672 H         1 UNK         0.0810 
    119 H119       23.6615    1.3609  -10.5704 H         1 UNK         0.0810 
    120 H120       28.1880    1.3716   -9.7939 H         1 UNK         0.3040 
    121 H121       29.5576   -0.5580  -11.3335 H         1 UNK         0.0766 
    122 H122       28.9142   -1.3400   -8.4229 H         1 UNK         0.0812 
    123 H123       30.0875   -2.1634   -9.4459 H         1 UNK         0.0812 
    124 H124       28.3938   -2.2141   -9.8590 H         1 UNK         0.0812 
    125 H125       31.6942   -0.9266   -9.4394 H         1 UNK         0.3205 
    126 H126       32.3472    1.7146   -8.3551 H         1 UNK         0.0754 
    127 H127       34.5887    1.7140   -9.4657 H         1 UNK         0.0769 
    128 H128       33.3130    1.8113  -10.6683 H         1 UNK         0.0769 
    129 H129       34.1524    0.2853  -10.3960 H         1 UNK         0.0769 
    130 H130       33.5667    1.5218   -6.5371 H         1 UNK         0.2981 
    131 H131       33.9596   -1.1430   -5.4052 H         1 UNK         0.0541 
    132 H132       36.0246    0.7366   -7.3807 H         1 UNK         0.3459 
    133 H133       37.5228    0.0729   -6.7795 H         1 UNK         0.3459 
    134 H134       34.2641    1.6599   -4.2232 H         1 UNK         0.0612 
    135 H135       34.5948    0.2044   -3.3257 H         1 UNK         0.0612 
    136 H136       33.0595   -1.2420   -2.2606 H         1 UNK         0.0624 
    137 H137       32.6650    0.2285   -1.3971 H         1 UNK         0.0624 
@<TRIPOS>BOND
     1    1    2 1    
     2    1   72 1    
     3    1   73 1    
     4    1   74 1    
     5    2    3 2    
     6    2    4 am   BACKBONE|DICT|INTERRES
     7    4    5 1    
     8    4   75 1    
     9    5    6 1    
    10    5   35 1    
    11    5   76 1    
    12    6    7 1    
    13    6   77 1    
    14    6   78 1    
    15    7    8 1    
    16    8    9 1    
    17    8   79 1    
    18    8   80 1    
    19    9   10 ar   
    20    9   14 ar   
    21   10   11 ar   
    22   10   81 1    
    23   11   12 ar   
    24   11   71 1    
    25   12   13 ar   
    26   12   82 1    
    27   13   14 ar   
    28   13   15 1    
    29   14   83 1    
    30   15   16 1    
    31   15   84 1    
    32   15   85 1    
    33   16   17 1    
    34   17   18 1    
    35   17   86 1    
    36   17   87 1    
    37   18   19 1    
    38   18   37 1    
    39   18   88 1    
    40   19   20 am   BACKBONE|DICT|INTERRES
    41   19   89 1    
    42   20   21 2    
    43   20   22 1    
    44   22   23 1    
    45   22   24 1    
    46   22   90 1    
    47   23   91 1    
    48   23   92 1    
    49   23   93 1    
    50   24   25 am   BACKBONE|DICT|INTERRES
    51   24   94 1    
    52   25   26 2    
    53   25   27 1    
    54   27   28 1    
    55   27   29 1    
    56   27   95 1    
    57   28   96 1    
    58   28   97 1    
    59   28   98 1    
    60   29   30 am   BACKBONE|DICT|INTERRES
    61   29   99 1    
    62   30   31 2    
    63   30   32 1    
    64   32   33 1    
    65   32   34 1    
    66   32  100 1    
    67   33  101 1    
    68   33  102 1    
    69   33  103 1    
    70   34   35 am   BACKBONE|DICT|INTERRES
    71   34  104 1    
    72   35   36 2    
    73   37   38 2    
    74   37   39 am   BACKBONE|DICT|INTERRES
    75   39   40 1    
    76   39  105 1    
    77   40   41 1    
    78   40   42 1    
    79   40  106 1    
    80   41  107 1    
    81   41  108 1    
    82   41  109 1    
    83   42   43 2    
    84   42   44 am   BACKBONE|DICT|INTERRES
    85   44   45 1    
    86   44  110 1    
    87   45   46 1    
    88   45   47 1    
    89   45  111 1    
    90   46  112 1    
    91   46  113 1    
    92   46  114 1    
    93   47   48 2    
    94   47   49 am   BACKBONE|DICT|INTERRES
    95   49   50 1    
    96   49  115 1    
    97   50   51 1    
    98   50   52 1    
    99   50  116 1    
   100   51  117 1    
   101   51  118 1    
   102   51  119 1    
   103   52   53 2    
   104   52   54 am   BACKBONE|DICT|INTERRES
   105   54   55 1    
   106   54  120 1    
   107   55   56 1    
   108   55   57 1    
   109   55  121 1    
   110   56  122 1    
   111   56  123 1    
   112   56  124 1    
   113   57   58 2    
   114   57   59 am   BACKBONE|DICT|INTERRES
   115   59   60 1    
   116   59  125 1    
   117   60   61 1    
   118   60   62 1    
   119   60  126 1    
   120   61  127 1    
   121   61  128 1    
   122   61  129 1    
   123   62   63 2    
   124   62   64 am   BACKBONE|DICT|INTERRES
   125   64   65 1    
   126   64  130 1    
   127   65   66 1    
   128   65   69 1    
   129   65  131 1    
   130   66   67 am   BACKBONE|DICT|INTERRES
   131   66   68 2    
   132   67  132 1    
   133   67  133 1    
   134   69   70 1    
   135   69  134 1    
   136   69  135 1    
   137   70   71 1    
   138   71  136 1    
   139   71  137 1    
@<TRIPOS>SUBSTRUCTURE
     1 UNK         1 GROUP             0       ****    0 ROOT    
