@<TRIPOS>MOLECULE
3R137
137   139    1
SMALL
USER_CHARGES


@<TRIPOS>ATOM
      1 CA         30.0472   -5.5467   -3.3765 C.3       0 UNK        -0.2020 
      2 C          29.2707   -5.0774   -2.1572 C.2       0 UNK         0.4855 
      3 O          28.6692   -5.8985   -1.4642 O.2       0 UNK        -0.5197 
      4 N          29.2978   -3.7679   -1.8729 N.am      1 UNK        -0.4892 
      5 CA         28.6533   -3.1685   -0.6978 C.3       1 UNK         0.0835 
      6 C6         29.2526   -1.7785   -0.3486 C.3       12 UNK        -0.0855 
      7 S7         28.7307   -0.4028   -1.4374 S.3       12 UNK        -0.2931 
      8 C8         30.2717    0.0402   -2.2968 C.3       12 UNK         0.0378 
      9 C9         30.7385   -1.0219   -3.2845 C.ar      12 UNK        -0.0802 
     10 C10        32.0687   -1.4493   -3.2657 C.ar      12 UNK        -0.0944 
     11 C11        32.5427   -2.3599   -4.2208 C.ar      12 UNK        -0.0787 
     12 C12        31.6513   -2.8700   -5.1678 C.ar      12 UNK        -0.0862 
     13 C13        30.3105   -2.4809   -5.1792 C.ar      12 UNK        -0.0733 
     14 C14        29.8659   -1.5378   -4.2478 C.ar      12 UNK        -0.0832 
     15 C15        29.3822   -3.0365   -6.2507 C.3       12 UNK         0.0240 
     16 S16        27.7052   -3.4252   -5.6441 S.3       12 UNK        -0.2522 
     17 C17        26.7993   -3.4365   -7.2295 C.3       12 UNK        -0.0967 
     18 CA         26.1012   -2.1098   -7.6416 C.3       5 UNK         0.0660 
     19 N          24.8251   -1.8761   -6.9625 N.am      5 UNK        -0.4015 
     20 C          23.8018   -1.2226   -7.5375 C.2       4 UNK         0.4946 
     21 O          23.8133   -0.8193   -8.7013 O.2       4 UNK        -0.5353 
     22 CA         22.5545   -0.9551   -6.6791 C.3       4 UNK         0.0277 
     23 CB         21.6109   -2.1685   -6.7041 C.3       4 UNK        -0.1981 
     24 N          22.8664   -0.6065   -5.2938 N.am      4 UNK        -0.4209 
     25 C          23.5444    0.4842   -4.9081 C.2       3 UNK         0.4942 
     26 O          23.9668    1.3443   -5.6812 O.2       3 UNK        -0.5208 
     27 CA         23.8381    0.6053   -3.4021 C.3       3 UNK         0.0250 
     28 CB         22.6911    1.3356   -2.6859 C.3       3 UNK        -0.1990 
     29 N          24.0856   -0.6866   -2.7484 N.am      3 UNK        -0.4232 
     30 C          25.0760   -1.5240   -3.0853 C.2       2 UNK         0.4993 
     31 O          25.8664   -1.3085   -4.0074 O.2       2 UNK        -0.5286 
     32 CA         25.1680   -2.8420   -2.3111 C.3       2 UNK         0.0209 
     33 CB         24.6104   -3.9992   -3.1564 C.3       2 UNK        -0.1931 
     34 N          26.5757   -3.0928   -2.0206 N.am      2 UNK        -0.4546 
     35 C          27.1106   -3.1363   -0.7933 C.2       1 UNK         0.5154 
     36 O          26.4444   -3.1318    0.2440 O.2       1 UNK        -0.5181 
     37 C          27.0019   -0.8627   -7.5541 C.2       5 UNK         0.5014 
     38 O          27.6624   -0.5408   -8.5413 O.2       5 UNK        -0.5248 
     39 N          26.9963   -0.1632   -6.4060 N.am      6 UNK        -0.4434 
     40 CA         27.7769    1.0567   -6.1658 C.3       6 UNK         0.0363 
     41 CB         27.5533    1.5485   -4.7275 C.3       6 UNK        -0.1936 
     42 C          27.4586    2.1879   -7.1568 C.2       6 UNK         0.5081 
     43 O          28.3677    2.9054   -7.5731 O.2       6 UNK        -0.5248 
     44 N          26.1792    2.2985   -7.5413 N.am      7 UNK        -0.4718 
     45 CA         25.6878    3.2149   -8.5715 C.3       7 UNK         0.0273 
     46 CB         24.1508    3.1970   -8.5607 C.3       7 UNK        -0.1935 
     47 C          26.2171    2.9066   -9.9856 C.2       7 UNK         0.5018 
     48 O          26.2668    3.8198  -10.8108 O.2       7 UNK        -0.5186 
     49 N          26.5931    1.6463  -10.2461 N.am      8 UNK        -0.4240 
     50 CA         27.1901    1.2056  -11.5051 C.3       8 UNK         0.0235 
     51 CB         26.7432   -0.2316  -11.8261 C.3       8 UNK        -0.2000 
     52 C          28.7201    1.3197  -11.4493 C.2       8 UNK         0.4941 
     53 O          29.3028    1.9725  -12.3165 O.2       8 UNK        -0.5273 
     54 N          29.3419    0.6993  -10.4374 N.am      9 UNK        -0.4262 
     55 CA         30.7880    0.6794  -10.2288 C.3       9 UNK         0.0264 
     56 CB         31.4808   -0.2123  -11.2819 C.3       9 UNK        -0.1955 
     57 C          31.0927    0.1967   -8.8051 C.2       9 UNK         0.5031 
     58 O          31.0868   -1.0108   -8.5595 O.2       9 UNK        -0.5390 
     59 N          31.3657    1.1441   -7.9002 N.am      10 UNK        -0.4204 
     60 CA         31.8654    0.8862   -6.5462 C.3       10 UNK         0.0237 
     61 CB         31.5695    2.1189   -5.6705 C.3       10 UNK        -0.1985 
     62 C          33.3737    0.5601   -6.5425 C.2       10 UNK         0.4970 
     63 O          34.0273    0.6287   -7.5867 O.2       10 UNK        -0.4914 
     64 N          33.9066    0.2525   -5.3512 N.am      11 UNK        -0.4285 
     65 CA         35.3388    0.0188   -5.0881 C.3       11 UNK         0.1007 
     66 C          36.2606    1.2286   -5.4363 C.2       11 UNK         0.5703 
     67 N          35.7700    2.4632   -5.4253 N.am      11 UNK        -0.7361 
     68 O          37.4418    1.0388   -5.7168 O.2       11 UNK        -0.4986 
     69 C69        35.5992   -0.4154   -3.6143 C.3       12 UNK        -0.0947 
     70 S70        35.1421   -2.1042   -3.0654 S.3       12 UNK        -0.2240 
     71 C71        34.0018   -2.8145   -4.3029 C.3       12 UNK         0.0194 
     72 H72        29.4411   -5.4503   -4.2760 H         1 UNK         0.0906 
     73 H73        30.9615   -4.9694   -3.5037 H         1 UNK         0.0906 
     74 H74        30.3303   -6.5935   -3.2691 H         1 UNK         0.0906 
     75 H75        29.7922   -3.1272   -2.4813 H         1 UNK         0.3140 
     76 H76        28.8806   -3.8229    0.1473 H         1 UNK         0.1085 
     77 H77        30.3420   -1.8379   -0.3268 H         1 UNK         0.0836 
     78 H78        28.9619   -1.5087    0.6683 H         1 UNK         0.0836 
     79 H79        30.1077    0.9698   -2.8432 H         1 UNK         0.0731 
     80 H80        31.0409    0.2545   -1.5532 H         1 UNK         0.0731 
     81 H81        32.7335   -1.0425   -2.5177 H         1 UNK         0.1312 
     82 H82        32.0091   -3.5703   -5.9107 H         1 UNK         0.1406 
     83 H83        28.8376   -1.2048   -4.2745 H         1 UNK         0.1631 
     84 H84        29.8019   -3.9423   -6.6907 H         1 UNK         0.0717 
     85 H85        29.3314   -2.3031   -7.0536 H         1 UNK         0.0717 
     86 H86        27.4934   -3.7357   -8.0172 H         1 UNK         0.0934 
     87 H87        26.0618   -4.2395   -7.1884 H         1 UNK         0.0934 
     88 H88        25.8790   -2.2327   -8.7045 H         1 UNK         0.0739 
     89 H89        24.7772   -2.1268   -5.9847 H         1 UNK         0.3093 
     90 H90        22.0298   -0.1052   -7.1213 H         1 UNK         0.0818 
     91 H91        20.6796   -1.9584   -6.1779 H         1 UNK         0.0819 
     92 H92        21.3476   -2.4357   -7.7287 H         1 UNK         0.0819 
     93 H93        22.0662   -3.0472   -6.2453 H         1 UNK         0.0819 
     94 H94        22.5571   -1.2497   -4.5801 H         1 UNK         0.3041 
     95 H95        24.7427    1.2053   -3.2906 H         1 UNK         0.0784 
     96 H96        22.5034    2.3083   -3.1432 H         1 UNK         0.0793 
     97 H97        21.7595    0.7699   -2.7295 H         1 UNK         0.0793 
     98 H98        22.9278    1.5144   -1.6368 H         1 UNK         0.0793 
     99 H99        23.4697   -0.9332   -1.9866 H         1 UNK         0.3024 
    100 H100       24.5868   -2.7612   -1.3899 H         1 UNK         0.1171 
    101 H101       23.5565   -3.8430   -3.3898 H         1 UNK         0.0786 
    102 H102       24.6874   -4.9472   -2.6237 H         1 UNK         0.0786 
    103 H103       25.1436   -4.1062   -4.1018 H         1 UNK         0.0786 
    104 H104       27.1987   -3.0345   -2.8154 H         1 UNK         0.2977 
    105 H105       26.4721   -0.5300   -5.6134 H         1 UNK         0.3127 
    106 H106       28.8274    0.7873   -6.2849 H         1 UNK         0.0770 
    107 H107       26.5421    1.9304   -4.5897 H         1 UNK         0.0814 
    108 H108       28.2406    2.3589   -4.4827 H         1 UNK         0.0814 
    109 H109       27.7090    0.7582   -3.9961 H         1 UNK         0.0814 
    110 H110       25.4871    1.7127   -7.0843 H         1 UNK         0.2983 
    111 H111       26.0238    4.2209   -8.3111 H         1 UNK         0.0947 
    112 H112       23.7445    3.8820   -9.3061 H         1 UNK         0.0806 
    113 H113       23.7576    3.5032   -7.5910 H         1 UNK         0.0806 
    114 H114       23.7592    2.2025   -8.7804 H         1 UNK         0.0806 
    115 H115       26.5831    0.9707   -9.4911 H         1 UNK         0.3000 
    116 H116       26.8371    1.8450  -12.3175 H         1 UNK         0.0850 
    117 H117       27.1563   -0.5613  -12.7802 H         1 UNK         0.0810 
    118 H118       25.6577   -0.2987  -11.9025 H         1 UNK         0.0810 
    119 H119       27.0669   -0.9460  -11.0693 H         1 UNK         0.0810 
    120 H120       28.7865    0.1979   -9.7419 H         1 UNK         0.3040 
    121 H121       31.1703    1.6967  -10.3374 H         1 UNK         0.0766 
    122 H122       32.5489   -0.2971  -11.0774 H         1 UNK         0.0812 
    123 H123       31.3783    0.1959  -12.2871 H         1 UNK         0.0812 
    124 H124       31.0682   -1.2219  -11.2873 H         1 UNK         0.0812 
    125 H125       31.3455    2.1105   -8.1924 H         1 UNK         0.3205 
    126 H126       31.3323    0.0274   -6.1372 H         1 UNK         0.0754 
    127 H127       31.8110    1.9327   -4.6237 H         1 UNK         0.0769 
    128 H128       30.5157    2.3927   -5.7073 H         1 UNK         0.0769 
    129 H129       32.1459    2.9880   -5.9904 H         1 UNK         0.0769 
    130 H130       33.2978    0.1865   -4.5498 H         1 UNK         0.2981 
    131 H131       35.6608   -0.7904   -5.7446 H         1 UNK         0.0541 
    132 H132       34.8057    2.6304   -5.1902 H         1 UNK         0.3459 
    133 H133       36.3758    3.2356   -5.6533 H         1 UNK         0.3459 
    134 H134       35.1176    0.2910   -2.9359 H         1 UNK         0.0612 
    135 H135       36.6649   -0.3411   -3.3870 H         1 UNK         0.0612 
    136 H136       34.3885   -2.6396   -5.3067 H         1 UNK         0.0624 
    137 H137       34.0169   -3.8963   -4.1642 H         1 UNK         0.0624 
@<TRIPOS>BOND
     1    1    2 1    
     2    1   72 1    
     3    1   73 1    
     4    1   74 1    
     5    2    3 2    
     6    2    4 am   BACKBONE|DICT|INTERRES
     7    4    5 1    
     8    4   75 1    
     9    5    6 1    
    10    5   35 1    
    11    5   76 1    
    12    6    7 1    
    13    6   77 1    
    14    6   78 1    
    15    7    8 1    
    16    8    9 1    
    17    8   79 1    
    18    8   80 1    
    19    9   10 ar   
    20    9   14 ar   
    21   10   11 ar   
    22   10   81 1    
    23   11   12 ar   
    24   11   71 1    
    25   12   13 ar   
    26   12   82 1    
    27   13   14 ar   
    28   13   15 1    
    29   14   83 1    
    30   15   16 1    
    31   15   84 1    
    32   15   85 1    
    33   16   17 1    
    34   17   18 1    
    35   17   86 1    
    36   17   87 1    
    37   18   19 1    
    38   18   37 1    
    39   18   88 1    
    40   19   20 am   BACKBONE|DICT|INTERRES
    41   19   89 1    
    42   20   21 2    
    43   20   22 1    
    44   22   23 1    
    45   22   24 1    
    46   22   90 1    
    47   23   91 1    
    48   23   92 1    
    49   23   93 1    
    50   24   25 am   BACKBONE|DICT|INTERRES
    51   24   94 1    
    52   25   26 2    
    53   25   27 1    
    54   27   28 1    
    55   27   29 1    
    56   27   95 1    
    57   28   96 1    
    58   28   97 1    
    59   28   98 1    
    60   29   30 am   BACKBONE|DICT|INTERRES
    61   29   99 1    
    62   30   31 2    
    63   30   32 1    
    64   32   33 1    
    65   32   34 1    
    66   32  100 1    
    67   33  101 1    
    68   33  102 1    
    69   33  103 1    
    70   34   35 am   BACKBONE|DICT|INTERRES
    71   34  104 1    
    72   35   36 2    
    73   37   38 2    
    74   37   39 am   BACKBONE|DICT|INTERRES
    75   39   40 1    
    76   39  105 1    
    77   40   41 1    
    78   40   42 1    
    79   40  106 1    
    80   41  107 1    
    81   41  108 1    
    82   41  109 1    
    83   42   43 2    
    84   42   44 am   BACKBONE|DICT|INTERRES
    85   44   45 1    
    86   44  110 1    
    87   45   46 1    
    88   45   47 1    
    89   45  111 1    
    90   46  112 1    
    91   46  113 1    
    92   46  114 1    
    93   47   48 2    
    94   47   49 am   BACKBONE|DICT|INTERRES
    95   49   50 1    
    96   49  115 1    
    97   50   51 1    
    98   50   52 1    
    99   50  116 1    
   100   51  117 1    
   101   51  118 1    
   102   51  119 1    
   103   52   53 2    
   104   52   54 am   BACKBONE|DICT|INTERRES
   105   54   55 1    
   106   54  120 1    
   107   55   56 1    
   108   55   57 1    
   109   55  121 1    
   110   56  122 1    
   111   56  123 1    
   112   56  124 1    
   113   57   58 2    
   114   57   59 am   BACKBONE|DICT|INTERRES
   115   59   60 1    
   116   59  125 1    
   117   60   61 1    
   118   60   62 1    
   119   60  126 1    
   120   61  127 1    
   121   61  128 1    
   122   61  129 1    
   123   62   63 2    
   124   62   64 am   BACKBONE|DICT|INTERRES
   125   64   65 1    
   126   64  130 1    
   127   65   66 1    
   128   65   69 1    
   129   65  131 1    
   130   66   67 am   BACKBONE|DICT|INTERRES
   131   66   68 2    
   132   67  132 1    
   133   67  133 1    
   134   69   70 1    
   135   69  134 1    
   136   69  135 1    
   137   70   71 1    
   138   71  136 1    
   139   71  137 1    
@<TRIPOS>SUBSTRUCTURE
     1 UNK         1 GROUP             0       ****    0 ROOT    
