@<TRIPOS>MOLECULE
3R137
137   139    1
SMALL
USER_CHARGES


@<TRIPOS>ATOM
      1 CA         26.4278    0.2255    1.9062 C.3       0 UNK        -0.2020 
      2 C          26.5543    0.0531    0.4006 C.2       0 UNK         0.4855 
      3 O          25.7474    0.6031   -0.3499 O.2       0 UNK        -0.5197 
      4 N          27.5499   -0.7227   -0.0520 N.am      1 UNK        -0.4892 
      5 CA         27.8446   -0.9863   -1.4689 C.3       1 UNK         0.0835 
      6 C6         29.1846   -1.7358   -1.6542 C.3       12 UNK        -0.0855 
      7 S7         29.2677   -3.3437   -0.7935 S.3       12 UNK        -0.2931 
      8 C8         30.8819   -3.9594   -1.3757 C.3       12 UNK         0.0378 
      9 C9         30.9736   -4.0602   -2.8953 C.ar      12 UNK        -0.0802 
     10 C10        32.0377   -3.4554   -3.5730 C.ar      12 UNK        -0.0944 
     11 C11        32.1555   -3.5766   -4.9603 C.ar      12 UNK        -0.0787 
     12 C12        31.1880   -4.2927   -5.6730 C.ar      12 UNK        -0.0862 
     13 C13        30.1101   -4.8895   -5.0111 C.ar      12 UNK        -0.0733 
     14 C14        30.0139   -4.7754   -3.6209 C.ar      12 UNK        -0.0832 
     15 C15        29.0822   -5.7057   -5.7868 C.3       12 UNK         0.0240 
     16 S16        28.2310   -4.7471   -7.0819 S.3       12 UNK        -0.2522 
     17 C17        27.1497   -3.6535   -6.1003 C.3       12 UNK        -0.0967 
     18 CA         26.8384   -2.3245   -6.8342 C.3       5 UNK         0.0660 
     19 N          25.6224   -1.6747   -6.3251 N.am      5 UNK        -0.4015 
     20 C          25.0738   -0.5596   -6.8337 C.2       4 UNK         0.4946 
     21 O          25.5814    0.1059   -7.7356 O.2       4 UNK        -0.5353 
     22 CA         23.7292   -0.1090   -6.2575 C.3       4 UNK         0.0277 
     23 CB         22.5941   -0.9908   -6.8189 C.3       4 UNK        -0.1981 
     24 N          23.7278   -0.1072   -4.7925 N.am      4 UNK        -0.4209 
     25 C          22.7816    0.4718   -4.0369 C.2       3 UNK         0.4942 
     26 O          21.8527    1.1317   -4.5072 O.2       3 UNK        -0.5208 
     27 CA         22.8766    0.3023   -2.5037 C.3       3 UNK         0.0250 
     28 CB         21.4887    0.2508   -1.8300 C.3       3 UNK        -0.1990 
     29 N          23.7004   -0.8324   -2.0699 N.am      3 UNK        -0.4232 
     30 C          23.5351   -2.1338   -2.3646 C.2       2 UNK         0.4993 
     31 O          22.5805   -2.5722   -3.0074 O.2       2 UNK        -0.5286 
     32 CA         24.6325   -3.1114   -1.8914 C.3       2 UNK         0.0209 
     33 CB         24.9149   -4.2141   -2.9316 C.3       2 UNK        -0.1931 
     34 N          25.8839   -2.4555   -1.4894 N.am      2 UNK        -0.4546 
     35 C          26.6944   -1.6807   -2.2291 C.2       1 UNK         0.5154 
     36 O          26.5308   -1.4467   -3.4302 O.2       1 UNK        -0.5181 
     37 C          28.0584   -1.3845   -6.8651 C.2       5 UNK         0.5014 
     38 O          28.7290   -1.3071   -7.8957 O.2       5 UNK        -0.5248 
     39 N          28.2825   -0.6408   -5.7706 N.am      6 UNK        -0.4434 
     40 CA         29.3686    0.3402   -5.6776 C.3       6 UNK         0.0363 
     41 CB         29.4745    0.9110   -4.2568 C.3       6 UNK        -0.1936 
     42 C          29.2616    1.4867   -6.6932 C.2       6 UNK         0.5081 
     43 O          30.2903    1.9288   -7.2005 O.2       6 UNK        -0.5248 
     44 N          28.0342    1.9378   -6.9813 N.am      7 UNK        -0.4718 
     45 CA         27.7617    2.9719   -7.9796 C.3       7 UNK         0.0273 
     46 CB         26.3590    3.5590   -7.7520 C.3       7 UNK        -0.1935 
     47 C          27.9097    2.4333   -9.4103 C.2       7 UNK         0.5018 
     48 O          28.5071    3.1076  -10.2491 O.2       7 UNK        -0.5186 
     49 N          27.3812    1.2257   -9.6535 N.am      8 UNK        -0.4240 
     50 CA         27.4201    0.5353  -10.9432 C.3       8 UNK         0.0235 
     51 CB         26.5152   -0.7067  -10.8878 C.3       8 UNK        -0.2000 
     52 C          28.8426    0.1541  -11.3828 C.2       8 UNK         0.4941 
     53 O          29.2036    0.4027  -12.5339 O.2       8 UNK        -0.5273 
     54 N          29.6222   -0.4351  -10.4663 N.am      9 UNK        -0.4262 
     55 CA         30.9967   -0.8771  -10.7183 C.3       9 UNK         0.0264 
     56 CB         31.2756   -2.1336   -9.8777 C.3       9 UNK        -0.1955 
     57 C          32.0546    0.2159  -10.4687 C.2       9 UNK         0.5031 
     58 O          33.2193   -0.0103  -10.8010 O.2       9 UNK        -0.5390 
     59 N          31.6468    1.3669   -9.9088 N.am      10 UNK        -0.4204 
     60 CA         32.4722    2.5285   -9.5441 C.3       10 UNK         0.0237 
     61 CB         33.0445    3.2167  -10.8022 C.3       10 UNK        -0.1985 
     62 C          33.5489    2.1751   -8.4977 C.2       10 UNK         0.4970 
     63 O          34.7304    2.4709   -8.6909 O.2       10 UNK        -0.4914 
     64 N          33.1111    1.5198   -7.4184 N.am      11 UNK        -0.4285 
     65 CA         33.9535    1.0469   -6.3108 C.3       11 UNK         0.1007 
     66 C          34.3594    2.1972   -5.3521 C.2       11 UNK         0.5703 
     67 N          35.5117    2.0846   -4.7052 N.am      11 UNK        -0.7361 
     68 O          33.6301    3.1688   -5.1597 O.2       11 UNK        -0.4986 
     69 C69        33.2793   -0.1179   -5.5371 C.3       12 UNK        -0.0947 
     70 S70        32.8850   -1.5085   -6.6516 S.3       12 UNK        -0.2240 
     71 C71        33.3495   -2.9797   -5.6914 C.3       12 UNK         0.0194 
     72 H72        25.4546   -0.1297    2.2439 H         1 UNK         0.0906 
     73 H73        27.1971   -0.3258    2.4465 H         1 UNK         0.0906 
     74 H74        26.5164    1.2789    2.1706 H         1 UNK         0.0906 
     75 H75        28.1726   -1.1712    0.6065 H         1 UNK         0.3140 
     76 H76        27.9509   -0.0066   -1.9372 H         1 UNK         0.1085 
     77 H77        29.3738   -1.8985   -2.7166 H         1 UNK         0.0836 
     78 H78        30.0070   -1.1142   -1.2961 H         1 UNK         0.0836 
     79 H79        31.0584   -4.9463   -0.9462 H         1 UNK         0.0731 
     80 H80        31.6641   -3.3084   -0.9820 H         1 UNK         0.0731 
     81 H81        32.7882   -2.9077   -3.0195 H         1 UNK         0.1312 
     82 H82        31.2777   -4.3908   -6.7465 H         1 UNK         0.1406 
     83 H83        29.1948   -5.2485   -3.0959 H         1 UNK         0.1631 
     84 H84        28.3356   -6.1369   -5.1179 H         1 UNK         0.0717 
     85 H85        29.5920   -6.5473   -6.2575 H         1 UNK         0.0717 
     86 H86        26.2279   -4.2104   -5.9297 H         1 UNK         0.0934 
     87 H87        27.5836   -3.4695   -5.1151 H         1 UNK         0.0934 
     88 H88        26.6122   -2.5703   -7.8741 H         1 UNK         0.0739 
     89 H89        25.1464   -2.1533   -5.5762 H         1 UNK         0.3093 
     90 H90        23.5674    0.9170   -6.5958 H         1 UNK         0.0818 
     91 H91        21.6121   -0.5859   -6.5752 H         1 UNK         0.0819 
     92 H92        22.6485   -1.0555   -7.9067 H         1 UNK         0.0819 
     93 H93        22.6402   -2.0073   -6.4265 H         1 UNK         0.0819 
     94 H94        24.5034   -0.5630   -4.3280 H         1 UNK         0.3041 
     95 H95        23.3864    1.1951   -2.1383 H         1 UNK         0.0784 
     96 H96        20.9230    1.1632   -2.0229 H         1 UNK         0.0793 
     97 H97        20.8921   -0.5848   -2.1974 H         1 UNK         0.0793 
     98 H98        21.5767    0.1508   -0.7481 H         1 UNK         0.0793 
     99 H99        24.5160   -0.5706   -1.5240 H         1 UNK         0.3024 
    100 H100       24.2361   -3.5928   -0.9959 H         1 UNK         0.1171 
    101 H101       24.0277   -4.8230   -3.1102 H         1 UNK         0.0786 
    102 H102       25.2150   -3.7911   -3.8878 H         1 UNK         0.0786 
    103 H103       25.7058   -4.8855   -2.5969 H         1 UNK         0.0786 
    104 H104       26.1326   -2.5570   -0.5146 H         1 UNK         0.2977 
    105 H105       27.6786   -0.7687   -4.9645 H         1 UNK         0.3127 
    106 H106       30.2924   -0.1934   -5.9020 H         1 UNK         0.0770 
    107 H107       28.5184    1.2960   -3.9013 H         1 UNK         0.0814 
    108 H108       30.1906    1.7337   -4.2175 H         1 UNK         0.0814 
    109 H109       29.8334    0.1600   -3.5588 H         1 UNK         0.0814 
    110 H110       27.2364    1.4764   -6.5678 H         1 UNK         0.2983 
    111 H111       28.4895    3.7766   -7.8507 H         1 UNK         0.0947 
    112 H112       26.1487    4.3513   -8.4717 H         1 UNK         0.0806 
    113 H113       26.2686    3.9944   -6.7567 H         1 UNK         0.0806 
    114 H114       25.5778    2.8061   -7.8608 H         1 UNK         0.0806 
    115 H115       26.8717    0.7620   -8.9032 H         1 UNK         0.3000 
    116 H116       27.0142    1.2171  -11.6935 H         1 UNK         0.0850 
    117 H117       26.5075   -1.2288  -11.8455 H         1 UNK         0.0810 
    118 H118       25.4848   -0.4356  -10.6567 H         1 UNK         0.0810 
    119 H119       26.8499   -1.4162  -10.1302 H         1 UNK         0.0810 
    120 H120       29.2410   -0.6398   -9.5421 H         1 UNK         0.3040 
    121 H121       31.0919   -1.1637  -11.7679 H         1 UNK         0.0766 
    122 H122       31.1097   -1.9496   -8.8178 H         1 UNK         0.0812 
    123 H123       32.3055   -2.4729   -9.9956 H         1 UNK         0.0812 
    124 H124       30.6259   -2.9575  -10.1728 H         1 UNK         0.0812 
    125 H125       30.6729    1.4337   -9.6455 H         1 UNK         0.3205 
    126 H126       31.8007    3.2411   -9.0626 H         1 UNK         0.0754 
    127 H127       33.5642    4.1387  -10.5391 H         1 UNK         0.0769 
    128 H128       32.2522    3.4801  -11.5030 H         1 UNK         0.0769 
    129 H129       33.7582    2.5802  -11.3262 H         1 UNK         0.0769 
    130 H130       32.1076    1.4111   -7.3038 H         1 UNK         0.2981 
    131 H131       34.8733    0.6562   -6.7513 H         1 UNK         0.0541 
    132 H132       36.1146    1.2890   -4.8463 H         1 UNK         0.3459 
    133 H133       35.7879    2.8148   -4.0675 H         1 UNK         0.3459 
    134 H134       33.9371   -0.4716   -4.7419 H         1 UNK         0.0612 
    135 H135       32.3654    0.2179   -5.0469 H         1 UNK         0.0612 
    136 H136       33.7479   -3.7255   -6.3807 H         1 UNK         0.0624 
    137 H137       34.1614   -2.7467   -5.0015 H         1 UNK         0.0624 
@<TRIPOS>BOND
     1    1    2 1    
     2    1   72 1    
     3    1   73 1    
     4    1   74 1    
     5    2    3 2    
     6    2    4 am   BACKBONE|DICT|INTERRES
     7    4    5 1    
     8    4   75 1    
     9    5    6 1    
    10    5   35 1    
    11    5   76 1    
    12    6    7 1    
    13    6   77 1    
    14    6   78 1    
    15    7    8 1    
    16    8    9 1    
    17    8   79 1    
    18    8   80 1    
    19    9   10 ar   
    20    9   14 ar   
    21   10   11 ar   
    22   10   81 1    
    23   11   12 ar   
    24   11   71 1    
    25   12   13 ar   
    26   12   82 1    
    27   13   14 ar   
    28   13   15 1    
    29   14   83 1    
    30   15   16 1    
    31   15   84 1    
    32   15   85 1    
    33   16   17 1    
    34   17   18 1    
    35   17   86 1    
    36   17   87 1    
    37   18   19 1    
    38   18   37 1    
    39   18   88 1    
    40   19   20 am   BACKBONE|DICT|INTERRES
    41   19   89 1    
    42   20   21 2    
    43   20   22 1    
    44   22   23 1    
    45   22   24 1    
    46   22   90 1    
    47   23   91 1    
    48   23   92 1    
    49   23   93 1    
    50   24   25 am   BACKBONE|DICT|INTERRES
    51   24   94 1    
    52   25   26 2    
    53   25   27 1    
    54   27   28 1    
    55   27   29 1    
    56   27   95 1    
    57   28   96 1    
    58   28   97 1    
    59   28   98 1    
    60   29   30 am   BACKBONE|DICT|INTERRES
    61   29   99 1    
    62   30   31 2    
    63   30   32 1    
    64   32   33 1    
    65   32   34 1    
    66   32  100 1    
    67   33  101 1    
    68   33  102 1    
    69   33  103 1    
    70   34   35 am   BACKBONE|DICT|INTERRES
    71   34  104 1    
    72   35   36 2    
    73   37   38 2    
    74   37   39 am   BACKBONE|DICT|INTERRES
    75   39   40 1    
    76   39  105 1    
    77   40   41 1    
    78   40   42 1    
    79   40  106 1    
    80   41  107 1    
    81   41  108 1    
    82   41  109 1    
    83   42   43 2    
    84   42   44 am   BACKBONE|DICT|INTERRES
    85   44   45 1    
    86   44  110 1    
    87   45   46 1    
    88   45   47 1    
    89   45  111 1    
    90   46  112 1    
    91   46  113 1    
    92   46  114 1    
    93   47   48 2    
    94   47   49 am   BACKBONE|DICT|INTERRES
    95   49   50 1    
    96   49  115 1    
    97   50   51 1    
    98   50   52 1    
    99   50  116 1    
   100   51  117 1    
   101   51  118 1    
   102   51  119 1    
   103   52   53 2    
   104   52   54 am   BACKBONE|DICT|INTERRES
   105   54   55 1    
   106   54  120 1    
   107   55   56 1    
   108   55   57 1    
   109   55  121 1    
   110   56  122 1    
   111   56  123 1    
   112   56  124 1    
   113   57   58 2    
   114   57   59 am   BACKBONE|DICT|INTERRES
   115   59   60 1    
   116   59  125 1    
   117   60   61 1    
   118   60   62 1    
   119   60  126 1    
   120   61  127 1    
   121   61  128 1    
   122   61  129 1    
   123   62   63 2    
   124   62   64 am   BACKBONE|DICT|INTERRES
   125   64   65 1    
   126   64  130 1    
   127   65   66 1    
   128   65   69 1    
   129   65  131 1    
   130   66   67 am   BACKBONE|DICT|INTERRES
   131   66   68 2    
   132   67  132 1    
   133   67  133 1    
   134   69   70 1    
   135   69  134 1    
   136   69  135 1    
   137   70   71 1    
   138   71  136 1    
   139   71  137 1    
@<TRIPOS>SUBSTRUCTURE
     1 UNK         1 GROUP             0       ****    0 ROOT    
