@<TRIPOS>MOLECULE
3R137
137   139    1
SMALL
USER_CHARGES


@<TRIPOS>ATOM
      1 CA         27.4062   -4.0503   -8.9103 C.3       0 UNK        -0.2020 
      2 C          27.2431   -4.9660   -7.7075 C.2       0 UNK         0.4855 
      3 O          27.1748   -6.1850   -7.8672 O.2       0 UNK        -0.5197 
      4 N          27.1785   -4.3869   -6.5065 N.am      1 UNK        -0.4892 
      5 CA         27.0458   -5.0819   -5.2282 C.3       1 UNK         0.0835 
      6 C6         28.3706   -5.7447   -4.7554 C.3       12 UNK        -0.0855 
      7 S7         29.8107   -4.6166   -4.7087 S.3       12 UNK        -0.2931 
      8 C8         30.0321   -4.3140   -2.9257 C.3       12 UNK         0.0378 
      9 C9         30.1412   -2.8260   -2.6248 C.ar      12 UNK        -0.0802 
     10 C10        31.2467   -2.0958   -3.0739 C.ar      12 UNK        -0.0944 
     11 C11        31.3553   -0.7305   -2.7953 C.ar      12 UNK        -0.0787 
     12 C12        30.3550   -0.0970   -2.0538 C.ar      12 UNK        -0.0862 
     13 C13        29.2440   -0.8144   -1.6003 C.ar      12 UNK        -0.0733 
     14 C14        29.1449   -2.1794   -1.8863 C.ar      12 UNK        -0.0832 
     15 C15        28.1558   -0.1131   -0.7978 C.3       12 UNK         0.0240 
     16 S16        26.6507    0.1877   -1.7807 S.3       12 UNK        -0.2522 
     17 C17        27.2859    1.2104   -3.1571 C.3       12 UNK        -0.0967 
     18 CA         27.3910    0.3788   -4.4673 C.3       5 UNK         0.0660 
     19 N          26.0914   -0.1439   -4.8962 N.am      5 UNK        -0.4015 
     20 C          25.0774    0.5577   -5.4239 C.2       4 UNK         0.4946 
     21 O          25.1262    1.7617   -5.6813 O.2       4 UNK        -0.5353 
     22 CA         23.7692   -0.2133   -5.6602 C.3       4 UNK         0.0277 
     23 CB         23.9193   -1.2428   -6.7925 C.3       4 UNK        -0.1981 
     24 N          23.3257   -0.8794   -4.4349 N.am      4 UNK        -0.4209 
     25 C          22.8378   -0.2517   -3.3560 C.2       3 UNK         0.4942 
     26 O          22.5741    0.9508   -3.3280 O.2       3 UNK        -0.5208 
     27 CA         22.6272   -1.0855   -2.0777 C.3       3 UNK         0.0250 
     28 CB         21.2429   -1.7645   -2.0665 C.3       3 UNK        -0.1990 
     29 N          23.7161   -2.0344   -1.7964 N.am      3 UNK        -0.4232 
     30 C          24.0514   -3.1436   -2.4689 C.2       2 UNK         0.4993 
     31 O          23.4149   -3.5895   -3.4271 O.2       2 UNK        -0.5286 
     32 CA         25.3327   -3.8545   -1.9993 C.3       2 UNK         0.0209 
     33 CB         25.0297   -4.7974   -0.8236 C.3       2 UNK        -0.1931 
     34 N          25.9834   -4.6190   -3.0689 N.am      2 UNK        -0.4546 
     35 C          26.4651   -4.0925   -4.2035 C.2       1 UNK         0.5154 
     36 O          26.4545   -2.8833   -4.4572 O.2       1 UNK        -0.5181 
     37 C          28.1241    1.0741   -5.6358 C.2       5 UNK         0.5014 
     38 O          28.0867    0.5563   -6.7552 O.2       5 UNK        -0.5248 
     39 N          28.7640    2.2250   -5.3847 N.am      6 UNK        -0.4434 
     40 CA         29.5959    2.9727   -6.3372 C.3       6 UNK         0.0363 
     41 CB         30.2844    4.1288   -5.5925 C.3       6 UNK        -0.1936 
     42 C          28.8770    3.4867   -7.6008 C.2       6 UNK         0.5081 
     43 O          29.5510    3.9324   -8.5298 O.2       6 UNK        -0.5248 
     44 N          27.5392    3.4125   -7.6383 N.am      7 UNK        -0.4718 
     45 CA         26.7378    3.6777   -8.8343 C.3       7 UNK         0.0273 
     46 CB         25.2754    3.9128   -8.4235 C.3       7 UNK        -0.1935 
     47 C          26.8271    2.5523   -9.8842 C.2       7 UNK         0.5018 
     48 O          26.4839    2.8027  -11.0408 O.2       7 UNK        -0.5186 
     49 N          27.2625    1.3484   -9.4812 N.am      8 UNK        -0.4240 
     50 CA         27.3725    0.1752  -10.3517 C.3       8 UNK         0.0235 
     51 CB         26.1757   -0.7580  -10.1041 C.3       8 UNK        -0.2000 
     52 C          28.6979   -0.5803  -10.1733 C.2       8 UNK         0.4941 
     53 O          29.2470   -1.0555  -11.1685 O.2       8 UNK        -0.5273 
     54 N          29.1842   -0.7083   -8.9319 N.am      9 UNK        -0.4262 
     55 CA         30.4276   -1.4029   -8.6003 C.3       9 UNK         0.0264 
     56 CB         30.3856   -1.8336   -7.1251 C.3       9 UNK        -0.1955 
     57 C          31.6493   -0.5117   -8.8668 C.2       9 UNK         0.5031 
     58 O          31.5758    0.7095   -8.7045 O.2       9 UNK        -0.5390 
     59 N          32.7713   -1.1442   -9.2307 N.am      10 UNK        -0.4204 
     60 CA         34.0587   -0.4957   -9.4908 C.3       10 UNK         0.0237 
     61 CB         34.8854   -1.3890  -10.4357 C.3       10 UNK        -0.1985 
     62 C          34.7999   -0.1715   -8.1793 C.2       10 UNK         0.4970 
     63 O          35.8636   -0.7351   -7.9144 O.2       10 UNK        -0.4914 
     64 N          34.2085    0.7157   -7.3720 N.am      11 UNK        -0.4285 
     65 CA         34.7363    1.1599   -6.0708 C.3       11 UNK         0.1007 
     66 C          36.0017    2.0638   -6.1510 C.2       11 UNK         0.5703 
     67 N          36.3597    2.6113   -7.3068 N.am      11 UNK        -0.7361 
     68 O          36.6751    2.2661   -5.1433 O.2       11 UNK        -0.4986 
     69 C69        33.6399    1.8320   -5.2044 C.3       12 UNK        -0.0947 
     70 S70        32.1879    0.7641   -4.9391 S.3       12 UNK        -0.2240 
     71 C71        32.5449    0.0672   -3.3021 C.3       12 UNK         0.0194 
     72 H72        27.5312   -3.0127   -8.6067 H         1 UNK         0.0906 
     73 H73        28.2835   -4.3389   -9.4885 H         1 UNK         0.0906 
     74 H74        26.5317   -4.1157   -9.5569 H         1 UNK         0.0906 
     75 H75        27.1976   -3.3797   -6.4029 H         1 UNK         0.3140 
     76 H76        26.2950   -5.8653   -5.3555 H         1 UNK         0.1085 
     77 H77        28.2406   -6.2359   -3.7900 H         1 UNK         0.0836 
     78 H78        28.6237   -6.5518   -5.4444 H         1 UNK         0.0836 
     79 H79        29.2119   -4.7543   -2.3576 H         1 UNK         0.0731 
     80 H80        30.9395   -4.8185   -2.5908 H         1 UNK         0.0731 
     81 H81        32.0157   -2.5897   -3.6522 H         1 UNK         0.1312 
     82 H82        30.4401    0.9593   -1.8380 H         1 UNK         0.1406 
     83 H83        28.2901   -2.7369   -1.5336 H         1 UNK         0.1631 
     84 H84        28.5187    0.8365   -0.4012 H         1 UNK         0.0717 
     85 H85        27.8947   -0.7229    0.0682 H         1 UNK         0.0717 
     86 H86        26.6155    2.0611   -3.2925 H         1 UNK         0.0934 
     87 H87        28.2494    1.6249   -2.8608 H         1 UNK         0.0934 
     88 H88        28.0010   -0.4998   -4.2503 H         1 UNK         0.0739 
     89 H89        25.9837   -1.1453   -4.7493 H         1 UNK         0.3093 
     90 H90        23.0025    0.5064   -5.9556 H         1 UNK         0.0818 
     91 H91        22.9800   -1.7633   -6.9798 H         1 UNK         0.0819 
     92 H92        24.2045   -0.7505   -7.7223 H         1 UNK         0.0819 
     93 H93        24.6778   -1.9942   -6.5693 H         1 UNK         0.0819 
     94 H94        23.4809   -1.8808   -4.3587 H         1 UNK         0.3041 
     95 H95        22.6441   -0.3789   -1.2461 H         1 UNK         0.0784 
     96 H96        20.4483   -1.0214   -2.1438 H         1 UNK         0.0793 
     97 H97        21.1161   -2.4565   -2.8993 H         1 UNK         0.0793 
     98 H98        21.0802   -2.3182   -1.1418 H         1 UNK         0.0793 
     99 H99        24.3265   -1.7473   -1.0431 H         1 UNK         0.3024 
    100 H100       26.0346   -3.0882   -1.6667 H         1 UNK         0.1171 
    101 H101       24.5741   -4.2572    0.0075 H         1 UNK         0.0786 
    102 H102       25.9388   -5.2636   -0.4430 H         1 UNK         0.0786 
    103 H103       24.3395   -5.5913   -1.1122 H         1 UNK         0.0786 
    104 H104       25.9963   -5.6218   -2.9544 H         1 UNK         0.2977 
    105 H105       28.7207    2.6030   -4.4506 H         1 UNK         0.3127 
    106 H106       30.3695    2.2891   -6.6921 H         1 UNK         0.0770 
    107 H107       29.5600    4.8414   -5.1967 H         1 UNK         0.0814 
    108 H108       30.9536    4.6782   -6.2562 H         1 UNK         0.0814 
    109 H109       30.8890    3.7628   -4.7624 H         1 UNK         0.0814 
    110 H110       27.0521    3.0232   -6.8412 H         1 UNK         0.2983 
    111 H111       27.1098    4.5917   -9.3030 H         1 UNK         0.0947 
    112 H112       24.6711    4.2002   -9.2850 H         1 UNK         0.0806 
    113 H113       25.1903    4.7123   -7.6873 H         1 UNK         0.0806 
    114 H114       24.8260    3.0146   -7.9993 H         1 UNK         0.0806 
    115 H115       27.5385    1.2305   -8.5106 H         1 UNK         0.3000 
    116 H116       27.3424    0.4882  -11.3977 H         1 UNK         0.0850 
    117 H117       26.2333   -1.6462  -10.7347 H         1 UNK         0.0810 
    118 H118       26.1378   -1.0910   -9.0671 H         1 UNK         0.0810 
    119 H119       25.2327   -0.2603  -10.3308 H         1 UNK         0.0810 
    120 H120       28.7159   -0.2517   -8.1498 H         1 UNK         0.3040 
    121 H121       30.5012   -2.3009   -9.2178 H         1 UNK         0.0766 
    122 H122       30.3226   -0.9761   -6.4555 H         1 UNK         0.0812 
    123 H123       31.2804   -2.3928   -6.8494 H         1 UNK         0.0812 
    124 H124       29.5287   -2.4748   -6.9216 H         1 UNK         0.0812 
    125 H125       32.7585   -2.1520   -9.2974 H         1 UNK         0.3205 
    126 H126       33.8805    0.4512  -10.0055 H         1 UNK         0.0754 
    127 H127       35.8444   -0.9254  -10.6717 H         1 UNK         0.0769 
    128 H128       34.3667   -1.5529  -11.3805 H         1 UNK         0.0769 
    129 H129       35.0943   -2.3643   -9.9940 H         1 UNK         0.0769 
    130 H130       33.3029    1.0819   -7.6463 H         1 UNK         0.2981 
    131 H131       35.0555    0.2611   -5.5396 H         1 UNK         0.0541 
    132 H132       35.8130    2.4550   -8.1379 H         1 UNK         0.3459 
    133 H133       37.1836    3.1906   -7.3446 H         1 UNK         0.3459 
    134 H134       33.2933    2.7497   -5.6830 H         1 UNK         0.0612 
    135 H135       34.0394    2.1308   -4.2335 H         1 UNK         0.0612 
    136 H136       33.4320   -0.5651   -3.3625 H         1 UNK         0.0624 
    137 H137       32.7792    0.8714   -2.6030 H         1 UNK         0.0624 
@<TRIPOS>BOND
     1    1    2 1    
     2    1   72 1    
     3    1   73 1    
     4    1   74 1    
     5    2    3 2    
     6    2    4 am   BACKBONE|DICT|INTERRES
     7    4    5 1    
     8    4   75 1    
     9    5    6 1    
    10    5   35 1    
    11    5   76 1    
    12    6    7 1    
    13    6   77 1    
    14    6   78 1    
    15    7    8 1    
    16    8    9 1    
    17    8   79 1    
    18    8   80 1    
    19    9   10 ar   
    20    9   14 ar   
    21   10   11 ar   
    22   10   81 1    
    23   11   12 ar   
    24   11   71 1    
    25   12   13 ar   
    26   12   82 1    
    27   13   14 ar   
    28   13   15 1    
    29   14   83 1    
    30   15   16 1    
    31   15   84 1    
    32   15   85 1    
    33   16   17 1    
    34   17   18 1    
    35   17   86 1    
    36   17   87 1    
    37   18   19 1    
    38   18   37 1    
    39   18   88 1    
    40   19   20 am   BACKBONE|DICT|INTERRES
    41   19   89 1    
    42   20   21 2    
    43   20   22 1    
    44   22   23 1    
    45   22   24 1    
    46   22   90 1    
    47   23   91 1    
    48   23   92 1    
    49   23   93 1    
    50   24   25 am   BACKBONE|DICT|INTERRES
    51   24   94 1    
    52   25   26 2    
    53   25   27 1    
    54   27   28 1    
    55   27   29 1    
    56   27   95 1    
    57   28   96 1    
    58   28   97 1    
    59   28   98 1    
    60   29   30 am   BACKBONE|DICT|INTERRES
    61   29   99 1    
    62   30   31 2    
    63   30   32 1    
    64   32   33 1    
    65   32   34 1    
    66   32  100 1    
    67   33  101 1    
    68   33  102 1    
    69   33  103 1    
    70   34   35 am   BACKBONE|DICT|INTERRES
    71   34  104 1    
    72   35   36 2    
    73   37   38 2    
    74   37   39 am   BACKBONE|DICT|INTERRES
    75   39   40 1    
    76   39  105 1    
    77   40   41 1    
    78   40   42 1    
    79   40  106 1    
    80   41  107 1    
    81   41  108 1    
    82   41  109 1    
    83   42   43 2    
    84   42   44 am   BACKBONE|DICT|INTERRES
    85   44   45 1    
    86   44  110 1    
    87   45   46 1    
    88   45   47 1    
    89   45  111 1    
    90   46  112 1    
    91   46  113 1    
    92   46  114 1    
    93   47   48 2    
    94   47   49 am   BACKBONE|DICT|INTERRES
    95   49   50 1    
    96   49  115 1    
    97   50   51 1    
    98   50   52 1    
    99   50  116 1    
   100   51  117 1    
   101   51  118 1    
   102   51  119 1    
   103   52   53 2    
   104   52   54 am   BACKBONE|DICT|INTERRES
   105   54   55 1    
   106   54  120 1    
   107   55   56 1    
   108   55   57 1    
   109   55  121 1    
   110   56  122 1    
   111   56  123 1    
   112   56  124 1    
   113   57   58 2    
   114   57   59 am   BACKBONE|DICT|INTERRES
   115   59   60 1    
   116   59  125 1    
   117   60   61 1    
   118   60   62 1    
   119   60  126 1    
   120   61  127 1    
   121   61  128 1    
   122   61  129 1    
   123   62   63 2    
   124   62   64 am   BACKBONE|DICT|INTERRES
   125   64   65 1    
   126   64  130 1    
   127   65   66 1    
   128   65   69 1    
   129   65  131 1    
   130   66   67 am   BACKBONE|DICT|INTERRES
   131   66   68 2    
   132   67  132 1    
   133   67  133 1    
   134   69   70 1    
   135   69  134 1    
   136   69  135 1    
   137   70   71 1    
   138   71  136 1    
   139   71  137 1    
@<TRIPOS>SUBSTRUCTURE
     1 UNK         1 GROUP             0       ****    0 ROOT    
