@<TRIPOS>MOLECULE
3R137
137   139    1
SMALL
USER_CHARGES


@<TRIPOS>ATOM
      1 CA         23.0889   -5.6168   -2.8950 C.3       0 UNK        -0.2020 
      2 C          24.1174   -4.9766   -1.9753 C.2       0 UNK         0.4855 
      3 O          23.7567   -4.4652   -0.9151 O.2       0 UNK        -0.5197 
      4 N          25.3959   -4.9921   -2.3742 N.am      1 UNK        -0.4892 
      5 CA         26.5246   -4.4119   -1.6382 C.3       1 UNK         0.0835 
      6 C6         27.8618   -5.0475   -2.1042 C.3       12 UNK        -0.0855 
      7 S7         29.1834   -4.8809   -0.8597 S.3       12 UNK        -0.2931 
      8 C8         30.6794   -4.9140   -1.9070 C.3       12 UNK         0.0378 
      9 C9         30.8307   -3.6709   -2.7774 C.ar      12 UNK        -0.0802 
     10 C10        31.0716   -3.7913   -4.1499 C.ar      12 UNK        -0.0944 
     11 C11        31.2218   -2.6524   -4.9489 C.ar      12 UNK        -0.0787 
     12 C12        31.1062   -1.3840   -4.3710 C.ar      12 UNK        -0.0862 
     13 C13        30.8826   -1.2514   -2.9984 C.ar      12 UNK        -0.0733 
     14 C14        30.7588   -2.3971   -2.2079 C.ar      12 UNK        -0.0832 
     15 C15        30.7795    0.1206   -2.3525 C.3       12 UNK         0.0240 
     16 S16        29.1039    0.3979   -1.7052 S.3       12 UNK        -0.2522 
     17 C17        28.4557    1.7218   -2.7722 C.3       12 UNK        -0.0967 
     18 CA         28.3762    1.4132   -4.2929 C.3       5 UNK         0.0660 
     19 N          27.8099    0.1013   -4.6240 N.am      5 UNK        -0.4015 
     20 C          27.7859   -0.4231   -5.8614 C.2       4 UNK         0.4946 
     21 O          28.3543    0.0769   -6.8347 O.2       4 UNK        -0.5353 
     22 CA         26.9395   -1.6885   -6.0708 C.3       4 UNK         0.0277 
     23 CB         27.7684   -2.9602   -5.8329 C.3       4 UNK        -0.1981 
     24 N          25.7527   -1.6984   -5.2134 N.am      4 UNK        -0.4209 
     25 C          24.6753   -0.9230   -5.4096 C.2       3 UNK         0.4942 
     26 O          24.5585   -0.1474   -6.3565 O.2       3 UNK        -0.5208 
     27 CA         23.5530   -0.9913   -4.3585 C.3       3 UNK         0.0250 
     28 CB         22.5703   -2.1227   -4.6978 C.3       3 UNK        -0.1990 
     29 N          24.0541   -1.1722   -2.9953 N.am      3 UNK        -0.4232 
     30 C          24.8359   -0.2977   -2.3459 C.2       2 UNK         0.4993 
     31 O          25.1512    0.8035   -2.7972 O.2       2 UNK        -0.5286 
     32 CA         25.4165   -0.7634   -0.9981 C.3       2 UNK         0.0209 
     33 CB         24.4858   -0.3639    0.1571 C.3       2 UNK        -0.1931 
     34 N          25.6764   -2.2091   -0.9427 N.am      2 UNK        -0.4546 
     35 C          26.4952   -2.8738   -1.7716 C.2       1 UNK         0.5154 
     36 O          27.1200   -2.3217   -2.6768 O.2       1 UNK        -0.5181 
     37 C          27.5923    2.5383   -4.9956 C.2       5 UNK         0.5014 
     38 O          28.2004    3.3765   -5.6607 O.2       5 UNK        -0.5248 
     39 N          26.2586    2.5236   -4.8397 N.am      6 UNK        -0.4434 
     40 CA         25.3295    3.5060   -5.4059 C.3       6 UNK         0.0363 
     41 CB         23.9125    3.2395   -4.8742 C.3       6 UNK        -0.1936 
     42 C          25.3345    3.5378   -6.9429 C.2       6 UNK         0.5081 
     43 O          25.3109    4.6223   -7.5254 O.2       6 UNK        -0.5248 
     44 N          25.3912    2.3561   -7.5715 N.am      7 UNK        -0.4718 
     45 CA         25.5157    2.1960   -9.0227 C.3       7 UNK         0.0273 
     46 CB         25.1466    0.7516   -9.3996 C.3       7 UNK        -0.1935 
     47 C          26.9168    2.5360   -9.5628 C.2       7 UNK         0.5018 
     48 O          27.0473    2.7424  -10.7700 O.2       7 UNK        -0.5186 
     49 N          27.9276    2.5570   -8.6781 N.am      8 UNK        -0.4240 
     50 CA         29.3629    2.6788   -8.9586 C.3       8 UNK         0.0235 
     51 CB         29.7066    4.0848   -9.4936 C.3       8 UNK        -0.2000 
     52 C          29.8443    1.5413   -9.8771 C.2       8 UNK         0.4941 
     53 O          30.4328    1.7933  -10.9320 O.2       8 UNK        -0.5273 
     54 N          29.5323    0.3011   -9.4766 N.am      9 UNK        -0.4262 
     55 CA         29.7274   -0.9247  -10.2538 C.3       9 UNK         0.0264 
     56 CB         28.8440   -2.0320   -9.6522 C.3       9 UNK        -0.1955 
     57 C          31.2069   -1.3426  -10.3576 C.2       9 UNK         0.5031 
     58 O          31.6000   -2.3635   -9.7934 O.2       9 UNK        -0.5390 
     59 N          32.0052   -0.5279  -11.0589 N.am      10 UNK        -0.4204 
     60 CA         33.4309   -0.6735  -11.3957 C.3       10 UNK         0.0237 
     61 CB         33.6858   -1.9633  -12.2013 C.3       10 UNK        -0.1985 
     62 C          34.4145   -0.5590  -10.2143 C.2       10 UNK         0.4970 
     63 O          35.5634   -0.1780  -10.4440 O.2       10 UNK        -0.4914 
     64 N          33.9708   -0.8787   -8.9937 N.am      11 UNK        -0.4285 
     65 CA         34.7295   -0.7762   -7.7382 C.3       11 UNK         0.1007 
     66 C          35.2549    0.6589   -7.4541 C.2       11 UNK         0.5703 
     67 N          36.4613    0.7849   -6.9177 N.am      11 UNK        -0.7361 
     68 O          34.5607    1.6505   -7.6724 O.2       11 UNK        -0.4986 
     69 C69        33.8977   -1.2809   -6.5318 C.3       12 UNK        -0.0947 
     70 S70        33.3002   -2.9930   -6.7381 S.3       12 UNK        -0.2240 
     71 C71        31.5152   -2.7983   -6.4347 C.3       12 UNK         0.0194 
     72 H72        22.2584   -4.9326   -3.0663 H         1 UNK         0.0906 
     73 H73        23.5144   -5.8818   -3.8627 H         1 UNK         0.0906 
     74 H74        22.6922   -6.5228   -2.4376 H         1 UNK         0.0906 
     75 H75        25.6285   -5.4143   -3.2622 H         1 UNK         0.3140 
     76 H76        26.3910   -4.6565   -0.5815 H         1 UNK         0.1085 
     77 H77        27.7277   -6.1181   -2.2679 H         1 UNK         0.0836 
     78 H78        28.1865   -4.6424   -3.0641 H         1 UNK         0.0836 
     79 H79        30.6618   -5.8181   -2.5178 H         1 UNK         0.0731 
     80 H80        31.5558   -4.9950   -1.2628 H         1 UNK         0.0731 
     81 H81        31.1532   -4.7717   -4.5991 H         1 UNK         0.1312 
     82 H82        31.1989   -0.5007   -4.9868 H         1 UNK         0.1406 
     83 H83        30.5809   -2.2946   -1.1460 H         1 UNK         0.1631 
     84 H84        31.0603    0.9113   -3.0491 H         1 UNK         0.0717 
     85 H85        31.4885    0.1784   -1.5256 H         1 UNK         0.0717 
     86 H86        27.4710    1.9715   -2.3734 H         1 UNK         0.0934 
     87 H87        29.0673    2.6113   -2.6081 H         1 UNK         0.0934 
     88 H88        29.3915    1.4271   -4.6935 H         1 UNK         0.0739 
     89 H89        27.3866   -0.4182   -3.8643 H         1 UNK         0.3093 
     90 H90        26.6046   -1.6957   -7.1103 H         1 UNK         0.0818 
     91 H91        28.5673   -3.0457   -6.5668 H         1 UNK         0.0819 
     92 H92        28.2426   -2.9611   -4.8522 H         1 UNK         0.0819 
     93 H93        27.1580   -3.8592   -5.9150 H         1 UNK         0.0819 
     94 H94        25.8262   -2.2339   -4.3577 H         1 UNK         0.3041 
     95 H95        23.0106   -0.0442   -4.3895 H         1 UNK         0.0784 
     96 H96        22.1424   -1.9794   -5.6912 H         1 UNK         0.0793 
     97 H97        23.0582   -3.0979   -4.6926 H         1 UNK         0.0793 
     98 H98        21.7405   -2.1557   -3.9914 H         1 UNK         0.0793 
     99 H99        23.8403   -2.0460   -2.5367 H         1 UNK         0.3024 
    100 H100       26.3702   -0.2505   -0.8639 H         1 UNK         0.1171 
    101 H101       24.9305   -0.6000    1.1241 H         1 UNK         0.0786 
    102 H102       24.2896    0.7094    0.1462 H         1 UNK         0.0786 
    103 H103       23.5231   -0.8730    0.0960 H         1 UNK         0.0786 
    104 H104       25.1179   -2.7514   -0.2951 H         1 UNK         0.2977 
    105 H105       25.8507    1.8159   -4.2308 H         1 UNK         0.3127 
    106 H106       25.6445    4.4912   -5.0557 H         1 UNK         0.0770 
    107 H107       23.5448    2.2602   -5.1817 H         1 UNK         0.0814 
    108 H108       23.2088    3.9845   -5.2477 H         1 UNK         0.0814 
    109 H109       23.8822    3.2810   -3.7852 H         1 UNK         0.0814 
    110 H110       25.3197    1.5017   -7.0238 H         1 UNK         0.2983 
    111 H111       24.8059    2.8704   -9.5068 H         1 UNK         0.0947 
    112 H112       25.1982    0.6011  -10.4788 H         1 UNK         0.0806 
    113 H113       24.1314    0.5068   -9.0868 H         1 UNK         0.0806 
    114 H114       25.8225    0.0315   -8.9364 H         1 UNK         0.0806 
    115 H115       27.6976    2.3747   -7.7091 H         1 UNK         0.3000 
    116 H116       29.8769    2.5497   -8.0046 H         1 UNK         0.0850 
    117 H117       30.7844    4.2022   -9.6122 H         1 UNK         0.0810 
    118 H118       29.3685    4.8611   -8.8072 H         1 UNK         0.0810 
    119 H119       29.2508    4.2742  -10.4659 H         1 UNK         0.0810 
    120 H120       29.0778    0.1950   -8.5705 H         1 UNK         0.3040 
    121 H121       29.3739   -0.7405  -11.2707 H         1 UNK         0.0766 
    122 H122       28.9258   -2.9550  -10.2275 H         1 UNK         0.0812 
    123 H123       29.1372   -2.2585   -8.6283 H         1 UNK         0.0812 
    124 H124       27.7925   -1.7445   -9.6455 H         1 UNK         0.0812 
    125 H125       31.5765    0.3474  -11.3566 H         1 UNK         0.3205 
    126 H126       33.6546    0.1686  -12.0527 H         1 UNK         0.0754 
    127 H127       34.7190   -2.0078  -12.5482 H         1 UNK         0.0769 
    128 H128       33.0463   -2.0139  -13.0826 H         1 UNK         0.0769 
    129 H129       33.5076   -2.8586  -11.6047 H         1 UNK         0.0769 
    130 H130       33.0413   -1.2767   -8.9248 H         1 UNK         0.2981 
    131 H131       35.5949   -1.4324   -7.8487 H         1 UNK         0.0541 
    132 H132       37.0327   -0.0224   -6.7219 H         1 UNK         0.3459 
    133 H133       36.8111    1.7075   -6.7116 H         1 UNK         0.3459 
    134 H134       33.0510   -0.6141   -6.3669 H         1 UNK         0.0612 
    135 H135       34.4920   -1.2504   -5.6167 H         1 UNK         0.0612 
    136 H136       31.1314   -1.9425   -6.9925 H         1 UNK         0.0624 
    137 H137       30.9980   -3.6739   -6.8294 H         1 UNK         0.0624 
@<TRIPOS>BOND
     1    1    2 1    
     2    1   72 1    
     3    1   73 1    
     4    1   74 1    
     5    2    3 2    
     6    2    4 am   BACKBONE|DICT|INTERRES
     7    4    5 1    
     8    4   75 1    
     9    5    6 1    
    10    5   35 1    
    11    5   76 1    
    12    6    7 1    
    13    6   77 1    
    14    6   78 1    
    15    7    8 1    
    16    8    9 1    
    17    8   79 1    
    18    8   80 1    
    19    9   10 ar   
    20    9   14 ar   
    21   10   11 ar   
    22   10   81 1    
    23   11   12 ar   
    24   11   71 1    
    25   12   13 ar   
    26   12   82 1    
    27   13   14 ar   
    28   13   15 1    
    29   14   83 1    
    30   15   16 1    
    31   15   84 1    
    32   15   85 1    
    33   16   17 1    
    34   17   18 1    
    35   17   86 1    
    36   17   87 1    
    37   18   19 1    
    38   18   37 1    
    39   18   88 1    
    40   19   20 am   BACKBONE|DICT|INTERRES
    41   19   89 1    
    42   20   21 2    
    43   20   22 1    
    44   22   23 1    
    45   22   24 1    
    46   22   90 1    
    47   23   91 1    
    48   23   92 1    
    49   23   93 1    
    50   24   25 am   BACKBONE|DICT|INTERRES
    51   24   94 1    
    52   25   26 2    
    53   25   27 1    
    54   27   28 1    
    55   27   29 1    
    56   27   95 1    
    57   28   96 1    
    58   28   97 1    
    59   28   98 1    
    60   29   30 am   BACKBONE|DICT|INTERRES
    61   29   99 1    
    62   30   31 2    
    63   30   32 1    
    64   32   33 1    
    65   32   34 1    
    66   32  100 1    
    67   33  101 1    
    68   33  102 1    
    69   33  103 1    
    70   34   35 am   BACKBONE|DICT|INTERRES
    71   34  104 1    
    72   35   36 2    
    73   37   38 2    
    74   37   39 am   BACKBONE|DICT|INTERRES
    75   39   40 1    
    76   39  105 1    
    77   40   41 1    
    78   40   42 1    
    79   40  106 1    
    80   41  107 1    
    81   41  108 1    
    82   41  109 1    
    83   42   43 2    
    84   42   44 am   BACKBONE|DICT|INTERRES
    85   44   45 1    
    86   44  110 1    
    87   45   46 1    
    88   45   47 1    
    89   45  111 1    
    90   46  112 1    
    91   46  113 1    
    92   46  114 1    
    93   47   48 2    
    94   47   49 am   BACKBONE|DICT|INTERRES
    95   49   50 1    
    96   49  115 1    
    97   50   51 1    
    98   50   52 1    
    99   50  116 1    
   100   51  117 1    
   101   51  118 1    
   102   51  119 1    
   103   52   53 2    
   104   52   54 am   BACKBONE|DICT|INTERRES
   105   54   55 1    
   106   54  120 1    
   107   55   56 1    
   108   55   57 1    
   109   55  121 1    
   110   56  122 1    
   111   56  123 1    
   112   56  124 1    
   113   57   58 2    
   114   57   59 am   BACKBONE|DICT|INTERRES
   115   59   60 1    
   116   59  125 1    
   117   60   61 1    
   118   60   62 1    
   119   60  126 1    
   120   61  127 1    
   121   61  128 1    
   122   61  129 1    
   123   62   63 2    
   124   62   64 am   BACKBONE|DICT|INTERRES
   125   64   65 1    
   126   64  130 1    
   127   65   66 1    
   128   65   69 1    
   129   65  131 1    
   130   66   67 am   BACKBONE|DICT|INTERRES
   131   66   68 2    
   132   67  132 1    
   133   67  133 1    
   134   69   70 1    
   135   69  134 1    
   136   69  135 1    
   137   70   71 1    
   138   71  136 1    
   139   71  137 1    
@<TRIPOS>SUBSTRUCTURE
     1 UNK         1 GROUP             0       ****    0 ROOT    
