@<TRIPOS>MOLECULE
3R137
137   139    1
SMALL
USER_CHARGES


@<TRIPOS>ATOM
      1 CA         22.4517   -3.1257   -5.6682 C.3       0 UNK        -0.2020 
      2 C          23.7619   -3.1945   -4.9009 C.2       0 UNK         0.4855 
      3 O          24.0297   -2.3352   -4.0563 O.2       0 UNK        -0.5197 
      4 N          24.5696   -4.2315   -5.1588 N.am      1 UNK        -0.4892 
      5 CA         25.8819   -4.5385   -4.5600 C.3       1 UNK         0.0835 
      6 C6         26.9232   -3.4053   -4.7740 C.3       12 UNK        -0.0855 
      7 S7         28.5989   -4.0506   -5.0819 S.3       12 UNK        -0.2931 
      8 C8         29.4102   -3.7923   -3.4723 C.3       12 UNK         0.0378 
      9 C9         29.9148   -2.3662   -3.3087 C.ar      12 UNK        -0.0802 
     10 C10        31.0791   -1.9640   -3.9711 C.ar      12 UNK        -0.0944 
     11 C11        31.5819   -0.6722   -3.7987 C.ar      12 UNK        -0.0787 
     12 C12        30.9040    0.2247   -2.9700 C.ar      12 UNK        -0.0862 
     13 C13        29.7395   -0.1624   -2.3008 C.ar      12 UNK        -0.0733 
     14 C14        29.2512   -1.4636   -2.4695 C.ar      12 UNK        -0.0832 
     15 C15        29.0477    0.8263   -1.3678 C.3       12 UNK         0.0240 
     16 S16        27.2825    1.0821   -1.7401 S.3       12 UNK        -0.2522 
     17 C17        27.2969    1.5407   -3.5095 C.3       12 UNK        -0.0967 
     18 CA         26.4999    0.5024   -4.3439 C.3       5 UNK         0.0660 
     19 N          25.0925    0.3726   -3.9381 N.am      5 UNK        -0.4015 
     20 C          24.1545    1.3307   -3.9933 C.2       4 UNK         0.4946 
     21 O          24.3527    2.4743   -4.4057 O.2       4 UNK        -0.5353 
     22 CA         22.7417    0.9495   -3.5207 C.3       4 UNK         0.0277 
     23 CB         21.8660    0.5581   -4.7217 C.3       4 UNK        -0.1981 
     24 N          22.7314   -0.1344   -2.5324 N.am      4 UNK        -0.4209 
     25 C          23.0695    0.0232   -1.2444 C.2       3 UNK         0.4942 
     26 O          23.4371    1.0933   -0.7591 O.2       3 UNK        -0.5208 
     27 CA         22.9597   -1.2081   -0.3384 C.3       3 UNK         0.0250 
     28 CB         21.4837   -1.5073   -0.0055 C.3       3 UNK        -0.1990 
     29 N          23.6149   -2.3874   -0.9151 N.am      3 UNK        -0.4232 
     30 C          24.0117   -3.4442   -0.1856 C.2       2 UNK         0.4993 
     31 O          23.8962   -3.4965    1.0401 O.2       2 UNK        -0.5286 
     32 CA         24.6257   -4.6583   -0.9054 C.3       2 UNK         0.0209 
     33 CB         23.7404   -5.9081   -0.7342 C.3       2 UNK        -0.1931 
     34 N          24.8584   -4.4173   -2.3276 N.am      2 UNK        -0.4546 
     35 C          25.8140   -4.9738   -3.0763 C.2       1 UNK         0.5154 
     36 O          26.6121   -5.8076   -2.6466 O.2       1 UNK        -0.5181 
     37 C          26.6127    0.6932   -5.8705 C.2       5 UNK         0.5014 
     38 O          27.3762    1.5325   -6.3518 O.2       5 UNK        -0.5248 
     39 N          25.8343   -0.1196   -6.6020 N.am      6 UNK        -0.4434 
     40 CA         25.6661   -0.1011   -8.0586 C.3       6 UNK         0.0363 
     41 CB         24.4983   -1.0324   -8.4265 C.3       6 UNK        -0.1936 
     42 C          26.9224   -0.4524   -8.8803 C.2       6 UNK         0.5081 
     43 O          26.8900   -0.3022  -10.1020 O.2       6 UNK        -0.5248 
     44 N          27.9989   -0.9029   -8.2192 N.am      7 UNK        -0.4718 
     45 CA         29.3185   -1.1401   -8.8116 C.3       7 UNK         0.0273 
     46 CB         30.2533   -1.7310   -7.7436 C.3       7 UNK        -0.1935 
     47 C          29.9321    0.1229   -9.4442 C.2       7 UNK         0.5018 
     48 O          30.5245    0.0234  -10.5200 O.2       7 UNK        -0.5186 
     49 N          29.7383    1.2803   -8.7893 N.am      8 UNK        -0.4240 
     50 CA         30.1004    2.6301   -9.2394 C.3       8 UNK         0.0235 
     51 CB         29.0703    3.1217  -10.2811 C.3       8 UNK        -0.2000 
     52 C          31.5629    2.7281   -9.7179 C.2       8 UNK         0.4941 
     53 O          32.4713    2.6939   -8.8892 O.2       8 UNK        -0.5273 
     54 N          31.7725    2.8109  -11.0395 N.am      9 UNK        -0.4262 
     55 CA         33.0861    2.8482  -11.6885 C.3       9 UNK         0.0264 
     56 CB         32.8995    3.0798  -13.1965 C.3       9 UNK        -0.1955 
     57 C          33.9515    1.5980  -11.4403 C.2       9 UNK         0.5031 
     58 O          35.1785    1.7121  -11.4573 O.2       9 UNK        -0.5390 
     59 N          33.3229    0.4403  -11.1794 N.am      10 UNK        -0.4204 
     60 CA         34.0124   -0.8118  -10.8495 C.3       10 UNK         0.0237 
     61 CB         33.0423   -1.9970  -10.9838 C.3       10 UNK        -0.1985 
     62 C          34.6846   -0.8018   -9.4630 C.2       10 UNK         0.4970 
     63 O          35.5191   -1.6711   -9.2075 O.2       10 UNK        -0.4914 
     64 N          34.3466    0.1737   -8.6064 N.am      11 UNK        -0.4285 
     65 CA         35.0450    0.4362   -7.3391 C.3       11 UNK         0.1007 
     66 C          36.4728    1.0354   -7.5162 C.2       11 UNK         0.5703 
     67 N          36.8616    1.5135   -8.6945 N.am      11 UNK        -0.7361 
     68 O          37.2478    1.0588   -6.5629 O.2       11 UNK        -0.4986 
     69 C69        34.2044    1.3176   -6.3793 C.3       12 UNK        -0.0947 
     70 S70        32.5490    0.6387   -6.0256 S.3       12 UNK        -0.2240 
     71 C71        32.8748   -0.2471   -4.4748 C.3       12 UNK         0.0194 
     72 H72        21.6356   -2.8580   -4.9979 H         1 UNK         0.0906 
     73 H73        22.2044   -4.0806   -6.1313 H         1 UNK         0.0906 
     74 H74        22.5111   -2.3741   -6.4533 H         1 UNK         0.0906 
     75 H75        24.2600   -4.9152   -5.8370 H         1 UNK         0.3140 
     76 H76        26.2210   -5.4201   -5.1074 H         1 UNK         0.1085 
     77 H77        26.9291   -2.7047   -3.9388 H         1 UNK         0.0836 
     78 H78        26.6620   -2.8172   -5.6544 H         1 UNK         0.0836 
     79 H79        28.7316   -4.0616   -2.6621 H         1 UNK         0.0731 
     80 H80        30.2545   -4.4790   -3.3957 H         1 UNK         0.0731 
     81 H81        31.5993   -2.6624   -4.6125 H         1 UNK         0.1312 
     82 H82        31.2968    1.2237   -2.8370 H         1 UNK         0.1406 
     83 H83        28.3592   -1.7709   -1.9406 H         1 UNK         0.1631 
     84 H84        29.5452    1.7971   -1.3940 H         1 UNK         0.0717 
     85 H85        29.1395    0.4646   -0.3430 H         1 UNK         0.0717 
     86 H86        26.8770    2.5414   -3.6201 H         1 UNK         0.0934 
     87 H87        28.3273    1.6101   -3.8620 H         1 UNK         0.0934 
     88 H88        26.9593   -0.4656   -4.1515 H         1 UNK         0.0739 
     89 H89        24.7962   -0.5534   -3.6490 H         1 UNK         0.3093 
     90 H90        22.3013    1.8360   -3.0587 H         1 UNK         0.0818 
     91 H91        20.8518    0.3052   -4.4123 H         1 UNK         0.0819 
     92 H92        22.2787   -0.2931   -5.2608 H         1 UNK         0.0819 
     93 H93        21.7908    1.3831   -5.4315 H         1 UNK         0.0819 
     94 H94        22.4410   -1.0429   -2.8645 H         1 UNK         0.3041 
     95 H95        23.4729   -0.9526    0.5919 H         1 UNK         0.0784 
     96 H96        20.9804   -0.6183    0.3774 H         1 UNK         0.0793 
     97 H97        20.9309   -1.8444   -0.8830 H         1 UNK         0.0793 
     98 H98        21.3949   -2.2782    0.7600 H         1 UNK         0.0793 
     99 H99        23.8072   -2.3563   -1.9071 H         1 UNK         0.3024 
    100 H100       25.5867   -4.8437   -0.4198 H         1 UNK         0.1171 
    101 H101       23.5573   -6.1204    0.3201 H         1 UNK         0.0786 
    102 H102       22.7704   -5.7809   -1.2160 H         1 UNK         0.0786 
    103 H103       24.2137   -6.7923   -1.1613 H         1 UNK         0.0786 
    104 H104       24.2664   -3.7418   -2.7965 H         1 UNK         0.2977 
    105 H105       25.2443   -0.7678   -6.1018 H         1 UNK         0.3127 
    106 H106       25.3894    0.9174   -8.3390 H         1 UNK         0.0770 
    107 H107       24.6949   -2.0633   -8.1294 H         1 UNK         0.0814 
    108 H108       24.3197   -1.0331   -9.5027 H         1 UNK         0.0814 
    109 H109       23.5712   -0.7111   -7.9518 H         1 UNK         0.0814 
    110 H110       27.9286   -1.0028   -7.2180 H         1 UNK         0.2983 
    111 H111       29.2001   -1.8750   -9.6106 H         1 UNK         0.0947 
    112 H112       30.2706   -1.1210   -6.8401 H         1 UNK         0.0806 
    113 H113       31.2800   -1.8039   -8.1034 H         1 UNK         0.0806 
    114 H114       29.9404   -2.7354   -7.4599 H         1 UNK         0.0806 
    115 H115       29.2404    1.2376   -7.9090 H         1 UNK         0.3000 
    116 H116       30.0236    3.2792   -8.3658 H         1 UNK         0.0850 
    117 H117       29.3074    4.1275  -10.6310 H         1 UNK         0.0810 
    118 H118       28.0717    3.1644   -9.8456 H         1 UNK         0.0810 
    119 H119       29.0151    2.4657  -11.1508 H         1 UNK         0.0810 
    120 H120       30.9662    2.7977  -11.6472 H         1 UNK         0.3040 
    121 H121       33.6287    3.7016  -11.2763 H         1 UNK         0.0766 
    122 H122       33.8634    3.1402  -13.7041 H         1 UNK         0.0812 
    123 H123       32.3735    4.0141  -13.3938 H         1 UNK         0.0812 
    124 H124       32.3363    2.2703  -13.6627 H         1 UNK         0.0812 
    125 H125       32.3059    0.4260  -11.1271 H         1 UNK         0.3205 
    126 H126       34.8077   -0.9523  -11.5847 H         1 UNK         0.0754 
    127 H127       32.2496   -1.9594  -10.2385 H         1 UNK         0.0769 
    128 H128       33.5654   -2.9449  -10.8505 H         1 UNK         0.0769 
    129 H129       32.5761   -2.0205  -11.9689 H         1 UNK         0.0769 
    130 H130       33.6530    0.8623   -8.8730 H         1 UNK         0.2981 
    131 H131       35.1869   -0.5270   -6.8453 H         1 UNK         0.0541 
    132 H132       36.2403    1.5048   -9.4927 H         1 UNK         0.3459 
    133 H133       37.7905    1.8924   -8.7873 H         1 UNK         0.3459 
    134 H134       34.0710    2.3136   -6.8041 H         1 UNK         0.0612 
    135 H135       34.7318    1.4692   -5.4359 H         1 UNK         0.0612 
    136 H136       33.5036   -1.1142   -4.6823 H         1 UNK         0.0624 
    137 H137       33.4422    0.3926   -3.7972 H         1 UNK         0.0624 
@<TRIPOS>BOND
     1    1    2 1    
     2    1   72 1    
     3    1   73 1    
     4    1   74 1    
     5    2    3 2    
     6    2    4 am   BACKBONE|DICT|INTERRES
     7    4    5 1    
     8    4   75 1    
     9    5    6 1    
    10    5   35 1    
    11    5   76 1    
    12    6    7 1    
    13    6   77 1    
    14    6   78 1    
    15    7    8 1    
    16    8    9 1    
    17    8   79 1    
    18    8   80 1    
    19    9   10 ar   
    20    9   14 ar   
    21   10   11 ar   
    22   10   81 1    
    23   11   12 ar   
    24   11   71 1    
    25   12   13 ar   
    26   12   82 1    
    27   13   14 ar   
    28   13   15 1    
    29   14   83 1    
    30   15   16 1    
    31   15   84 1    
    32   15   85 1    
    33   16   17 1    
    34   17   18 1    
    35   17   86 1    
    36   17   87 1    
    37   18   19 1    
    38   18   37 1    
    39   18   88 1    
    40   19   20 am   BACKBONE|DICT|INTERRES
    41   19   89 1    
    42   20   21 2    
    43   20   22 1    
    44   22   23 1    
    45   22   24 1    
    46   22   90 1    
    47   23   91 1    
    48   23   92 1    
    49   23   93 1    
    50   24   25 am   BACKBONE|DICT|INTERRES
    51   24   94 1    
    52   25   26 2    
    53   25   27 1    
    54   27   28 1    
    55   27   29 1    
    56   27   95 1    
    57   28   96 1    
    58   28   97 1    
    59   28   98 1    
    60   29   30 am   BACKBONE|DICT|INTERRES
    61   29   99 1    
    62   30   31 2    
    63   30   32 1    
    64   32   33 1    
    65   32   34 1    
    66   32  100 1    
    67   33  101 1    
    68   33  102 1    
    69   33  103 1    
    70   34   35 am   BACKBONE|DICT|INTERRES
    71   34  104 1    
    72   35   36 2    
    73   37   38 2    
    74   37   39 am   BACKBONE|DICT|INTERRES
    75   39   40 1    
    76   39  105 1    
    77   40   41 1    
    78   40   42 1    
    79   40  106 1    
    80   41  107 1    
    81   41  108 1    
    82   41  109 1    
    83   42   43 2    
    84   42   44 am   BACKBONE|DICT|INTERRES
    85   44   45 1    
    86   44  110 1    
    87   45   46 1    
    88   45   47 1    
    89   45  111 1    
    90   46  112 1    
    91   46  113 1    
    92   46  114 1    
    93   47   48 2    
    94   47   49 am   BACKBONE|DICT|INTERRES
    95   49   50 1    
    96   49  115 1    
    97   50   51 1    
    98   50   52 1    
    99   50  116 1    
   100   51  117 1    
   101   51  118 1    
   102   51  119 1    
   103   52   53 2    
   104   52   54 am   BACKBONE|DICT|INTERRES
   105   54   55 1    
   106   54  120 1    
   107   55   56 1    
   108   55   57 1    
   109   55  121 1    
   110   56  122 1    
   111   56  123 1    
   112   56  124 1    
   113   57   58 2    
   114   57   59 am   BACKBONE|DICT|INTERRES
   115   59   60 1    
   116   59  125 1    
   117   60   61 1    
   118   60   62 1    
   119   60  126 1    
   120   61  127 1    
   121   61  128 1    
   122   61  129 1    
   123   62   63 2    
   124   62   64 am   BACKBONE|DICT|INTERRES
   125   64   65 1    
   126   64  130 1    
   127   65   66 1    
   128   65   69 1    
   129   65  131 1    
   130   66   67 am   BACKBONE|DICT|INTERRES
   131   66   68 2    
   132   67  132 1    
   133   67  133 1    
   134   69   70 1    
   135   69  134 1    
   136   69  135 1    
   137   70   71 1    
   138   71  136 1    
   139   71  137 1    
@<TRIPOS>SUBSTRUCTURE
     1 UNK         1 GROUP             0       ****    0 ROOT    
