@<TRIPOS>MOLECULE
3R137
137   139    1
SMALL
USER_CHARGES


@<TRIPOS>ATOM
      1 CA         29.8580    0.1914   -1.8148 C.3       0 UNK        -0.2020 
      2 C          28.8648   -0.8279   -1.2773 C.2       0 UNK         0.4855 
      3 O          28.0979   -0.5152   -0.3657 O.2       0 UNK        -0.5197 
      4 N          28.8707   -2.0378   -1.8502 N.am      1 UNK        -0.4892 
      5 CA         28.0371   -3.2121   -1.5423 C.3       1 UNK         0.0835 
      6 C6         28.2021   -3.7790   -0.1036 C.3       12 UNK        -0.0855 
      7 S7         29.9208   -3.9419    0.5132 S.3       12 UNK        -0.2931 
      8 C8         30.7295   -5.0926   -0.6542 C.3       12 UNK         0.0378 
      9 C9         31.1457   -4.4002   -1.9463 C.ar      12 UNK        -0.0802 
     10 C10        32.0059   -3.2978   -1.9123 C.ar      12 UNK        -0.0944 
     11 C11        32.3141   -2.5857   -3.0757 C.ar      12 UNK        -0.0787 
     12 C12        31.7571   -3.0079   -4.2917 C.ar      12 UNK        -0.0862 
     13 C13        30.9132   -4.1222   -4.3425 C.ar      12 UNK        -0.0733 
     14 C14        30.6355   -4.8314   -3.1726 C.ar      12 UNK        -0.0832 
     15 C15        30.2626   -4.5424   -5.6527 C.3       12 UNK         0.0240 
     16 S16        28.4778   -4.1619   -5.6667 S.3       12 UNK        -0.2522 
     17 C17        28.4638   -2.3443   -5.5108 C.3       12 UNK        -0.0967 
     18 CA         27.6330   -1.6651   -6.6229 C.3       5 UNK         0.0660 
     19 N          26.2041   -1.9472   -6.4976 N.am      5 UNK        -0.4015 
     20 C          25.3867   -2.1913   -7.5296 C.2       4 UNK         0.4946 
     21 O          25.7613   -2.2894   -8.6986 O.2       4 UNK        -0.5353 
     22 CA         23.8852   -2.3327   -7.2152 C.3       4 UNK         0.0277 
     23 CB         23.5307   -3.8051   -6.9517 C.3       4 UNK        -0.1981 
     24 N          23.4303   -1.5160   -6.0853 N.am      4 UNK        -0.4209 
     25 C          23.5288   -0.1808   -6.0107 C.2       3 UNK         0.4942 
     26 O          24.0095    0.5245   -6.8957 O.2       3 UNK        -0.5208 
     27 CA         23.0712    0.4819   -4.7018 C.3       3 UNK         0.0250 
     28 CB         21.5717    0.8118   -4.7666 C.3       3 UNK        -0.1990 
     29 N          23.3523   -0.2886   -3.4832 N.am      3 UNK        -0.4232 
     30 C          24.5411   -0.7937   -3.1204 C.2       2 UNK         0.4993 
     31 O          25.5497   -0.7465   -3.8329 O.2       2 UNK        -0.5286 
     32 CA         24.6032   -1.4248   -1.7166 C.3       2 UNK         0.0209 
     33 CB         23.5038   -2.4873   -1.4916 C.3       2 UNK        -0.1931 
     34 N          25.9370   -1.9513   -1.4054 N.am      2 UNK        -0.4546 
     35 C          26.5536   -3.0227   -1.9209 C.2       1 UNK         0.5154 
     36 O          26.0185   -3.8329   -2.6789 O.2       1 UNK        -0.5181 
     37 C          27.8745   -0.1475   -6.6027 C.2       5 UNK         0.5014 
     38 O          28.6558    0.3447   -7.4186 O.2       5 UNK        -0.5248 
     39 N          27.2364    0.5591   -5.6577 N.am      6 UNK        -0.4434 
     40 CA         27.4892    1.9691   -5.3604 C.3       6 UNK         0.0363 
     41 CB         26.8137    2.3476   -4.0330 C.3       6 UNK        -0.1936 
     42 C          27.0721    2.9336   -6.4804 C.2       6 UNK         0.5081 
     43 O          27.8355    3.8489   -6.7874 O.2       6 UNK        -0.5248 
     44 N          25.8956    2.7182   -7.0887 N.am      7 UNK        -0.4718 
     45 CA         25.3951    3.5554   -8.1877 C.3       7 UNK         0.0273 
     46 CB         23.8762    3.3758   -8.3402 C.3       7 UNK        -0.1935 
     47 C          26.1109    3.2623   -9.5157 C.2       7 UNK         0.5018 
     48 O          26.2355    4.1599  -10.3492 O.2       7 UNK        -0.5186 
     49 N          26.5863    2.0200   -9.6758 N.am      8 UNK        -0.4240 
     50 CA         27.4140    1.5819  -10.8001 C.3       8 UNK         0.0235 
     51 CB         27.3497    0.0480  -10.8929 C.3       8 UNK        -0.2000 
     52 C          28.8781    2.0444  -10.6826 C.2       8 UNK         0.4941 
     53 O          29.5794    2.0534  -11.6947 O.2       8 UNK        -0.5273 
     54 N          29.3143    2.3800   -9.4568 N.am      9 UNK        -0.4262 
     55 CA         30.6937    2.6537   -9.0364 C.3       9 UNK         0.0264 
     56 CB         31.2235    3.9553   -9.6736 C.3       9 UNK        -0.1955 
     57 C          31.6109    1.4387   -9.2779 C.2       9 UNK         0.5031 
     58 O          32.7373    1.5955   -9.7536 O.2       9 UNK        -0.5390 
     59 N          31.0960    0.2418   -8.9583 N.am      10 UNK        -0.4204 
     60 CA         31.6850   -1.0605   -9.2924 C.3       10 UNK         0.0237 
     61 CB         30.7137   -2.1715   -8.8676 C.3       10 UNK        -0.1985 
     62 C          33.0859   -1.3129   -8.7072 C.2       10 UNK         0.4970 
     63 O          33.8742   -2.0260   -9.3293 O.2       10 UNK        -0.4914 
     64 N          33.3668   -0.7199   -7.5428 N.am      11 UNK        -0.4285 
     65 CA         34.6780   -0.7196   -6.8774 C.3       11 UNK         0.1007 
     66 C          35.4568    0.6199   -7.0399 C.2       11 UNK         0.5703 
     67 N          35.0205    1.5532   -7.8791 N.am      11 UNK        -0.7361 
     68 O          36.4960    0.8114   -6.4125 O.2       11 UNK        -0.4986 
     69 C69        34.5699   -1.1957   -5.4031 C.3       12 UNK        -0.0947 
     70 S70        33.3497   -0.2753   -4.4034 S.3       12 UNK        -0.2240 
     71 C71        33.2308   -1.3650   -2.9430 C.3       12 UNK         0.0194 
     72 H72        30.3307   -0.1464   -2.7372 H         1 UNK         0.0906 
     73 H73        29.3548    1.1352   -2.0222 H         1 UNK         0.0906 
     74 H74        30.6393    0.3762   -1.0783 H         1 UNK         0.0906 
     75 H75        29.5628   -2.2172   -2.5647 H         1 UNK         0.3140 
     76 H76        28.3788   -3.9879   -2.2227 H         1 UNK         0.1085 
     77 H77        27.6752   -3.1413    0.6086 H         1 UNK         0.0836 
     78 H78        27.7244   -4.7580   -0.0326 H         1 UNK         0.0836 
     79 H79        30.0650   -5.9360   -0.8488 H         1 UNK         0.0731 
     80 H80        31.6202   -5.5053   -0.1787 H         1 UNK         0.0731 
     81 H81        32.4068   -2.9698   -0.9625 H         1 UNK         0.1312 
     82 H82        31.9602   -2.4698   -5.2057 H         1 UNK         0.1406 
     83 H83        29.9711   -5.6844   -3.2137 H         1 UNK         0.1631 
     84 H84        30.3946   -5.6162   -5.7926 H         1 UNK         0.0717 
     85 H85        30.7486   -4.0647   -6.5032 H         1 UNK         0.0717 
     86 H86        28.0682   -2.0879   -4.5271 H         1 UNK         0.0934 
     87 H87        29.4903   -1.9763   -5.5305 H         1 UNK         0.0934 
     88 H88        27.9968   -2.0335   -7.5841 H         1 UNK         0.0739 
     89 H89        25.8069   -1.8522   -5.5696 H         1 UNK         0.3093 
     90 H90        23.3370   -1.9993   -8.0989 H         1 UNK         0.0818 
     91 H91        22.4564   -3.9398   -6.8242 H         1 UNK         0.0819 
     92 H92        23.8369   -4.4353   -7.7881 H         1 UNK         0.0819 
     93 H93        24.0275   -4.1864   -6.0583 H         1 UNK         0.0819 
     94 H94        23.0343   -2.0075   -5.2974 H         1 UNK         0.3041 
     95 H95        23.6147    1.4238   -4.6158 H         1 UNK         0.0784 
     96 H96        21.3396    1.4008   -5.6554 H         1 UNK         0.0793 
     97 H97        20.9598   -0.0904   -4.8045 H         1 UNK         0.0793 
     98 H98        21.2552    1.3972   -3.9031 H         1 UNK         0.0793 
     99 H99        22.5835   -0.3771   -2.8344 H         1 UNK         0.3024 
    100 H100       24.4370   -0.6122   -1.0074 H         1 UNK         0.1171 
    101 H101       23.6330   -2.9930   -0.5346 H         1 UNK         0.0786 
    102 H102       22.5109   -2.0373   -1.4793 H         1 UNK         0.0786 
    103 H103       23.5032   -3.2482   -2.2729 H         1 UNK         0.0786 
    104 H104       26.5339   -1.3326   -0.8582 H         1 UNK         0.2977 
    105 H105       26.6082    0.0738   -5.0177 H         1 UNK         0.3127 
    106 H106       28.5675    2.0796   -5.2248 H         1 UNK         0.0770 
    107 H107       25.7293    2.2635   -4.0927 H         1 UNK         0.0814 
    108 H108       27.0459    3.3771   -3.7571 H         1 UNK         0.0814 
    109 H109       27.1524    1.7085   -3.2175 H         1 UNK         0.0814 
    110 H110       25.3212    1.9208   -6.8246 H         1 UNK         0.2983 
    111 H111       25.5842    4.6016   -7.9359 H         1 UNK         0.0947 
    112 H112       23.4741    4.0849   -9.0649 H         1 UNK         0.0806 
    113 H113       23.3569    3.5450   -7.3969 H         1 UNK         0.0806 
    114 H114       23.6187    2.3763   -8.6919 H         1 UNK         0.0806 
    115 H115       26.4238    1.3509   -8.9366 H         1 UNK         0.3000 
    116 H116       27.0059    2.0020  -11.7220 H         1 UNK         0.0850 
    117 H117       27.9336   -0.3179  -11.7386 H         1 UNK         0.0810 
    118 H118       26.3259   -0.3002  -11.0320 H         1 UNK         0.0810 
    119 H119       27.7440   -0.4294   -9.9948 H         1 UNK         0.0810 
    120 H120       28.6514    2.2977   -8.6967 H         1 UNK         0.3040 
    121 H121       30.6596    2.8028   -7.9560 H         1 UNK         0.0766 
    122 H122       31.3378    3.8620  -10.7539 H         1 UNK         0.0812 
    123 H123       32.2003    4.2186   -9.2661 H         1 UNK         0.0812 
    124 H124       30.5538    4.7926   -9.4774 H         1 UNK         0.0812 
    125 H125       30.1774    0.2299   -8.5179 H         1 UNK         0.3205 
    126 H126       31.7851   -1.0956  -10.3792 H         1 UNK         0.0754 
    127 H127       31.1207   -3.1594   -9.0883 H         1 UNK         0.0769 
    128 H128       29.7629   -2.0891   -9.3946 H         1 UNK         0.0769 
    129 H129       30.5104   -2.1295   -7.7985 H         1 UNK         0.0769 
    130 H130       32.6630   -0.1389   -7.1123 H         1 UNK         0.2981 
    131 H131       35.3199   -1.4478   -7.3756 H         1 UNK         0.0541 
    132 H132       34.2031    1.4063   -8.4625 H         1 UNK         0.3459 
    133 H133       35.5482    2.4061   -7.9721 H         1 UNK         0.3459 
    134 H134       35.5389   -1.1462   -4.9034 H         1 UNK         0.0612 
    135 H135       34.2986   -2.2517   -5.3947 H         1 UNK         0.0612 
    136 H136       34.2317   -1.7000   -2.6673 H         1 UNK         0.0624 
    137 H137       32.8753   -0.7538   -2.1123 H         1 UNK         0.0624 
@<TRIPOS>BOND
     1    1    2 1    
     2    1   72 1    
     3    1   73 1    
     4    1   74 1    
     5    2    3 2    
     6    2    4 am   BACKBONE|DICT|INTERRES
     7    4    5 1    
     8    4   75 1    
     9    5    6 1    
    10    5   35 1    
    11    5   76 1    
    12    6    7 1    
    13    6   77 1    
    14    6   78 1    
    15    7    8 1    
    16    8    9 1    
    17    8   79 1    
    18    8   80 1    
    19    9   10 ar   
    20    9   14 ar   
    21   10   11 ar   
    22   10   81 1    
    23   11   12 ar   
    24   11   71 1    
    25   12   13 ar   
    26   12   82 1    
    27   13   14 ar   
    28   13   15 1    
    29   14   83 1    
    30   15   16 1    
    31   15   84 1    
    32   15   85 1    
    33   16   17 1    
    34   17   18 1    
    35   17   86 1    
    36   17   87 1    
    37   18   19 1    
    38   18   37 1    
    39   18   88 1    
    40   19   20 am   BACKBONE|DICT|INTERRES
    41   19   89 1    
    42   20   21 2    
    43   20   22 1    
    44   22   23 1    
    45   22   24 1    
    46   22   90 1    
    47   23   91 1    
    48   23   92 1    
    49   23   93 1    
    50   24   25 am   BACKBONE|DICT|INTERRES
    51   24   94 1    
    52   25   26 2    
    53   25   27 1    
    54   27   28 1    
    55   27   29 1    
    56   27   95 1    
    57   28   96 1    
    58   28   97 1    
    59   28   98 1    
    60   29   30 am   BACKBONE|DICT|INTERRES
    61   29   99 1    
    62   30   31 2    
    63   30   32 1    
    64   32   33 1    
    65   32   34 1    
    66   32  100 1    
    67   33  101 1    
    68   33  102 1    
    69   33  103 1    
    70   34   35 am   BACKBONE|DICT|INTERRES
    71   34  104 1    
    72   35   36 2    
    73   37   38 2    
    74   37   39 am   BACKBONE|DICT|INTERRES
    75   39   40 1    
    76   39  105 1    
    77   40   41 1    
    78   40   42 1    
    79   40  106 1    
    80   41  107 1    
    81   41  108 1    
    82   41  109 1    
    83   42   43 2    
    84   42   44 am   BACKBONE|DICT|INTERRES
    85   44   45 1    
    86   44  110 1    
    87   45   46 1    
    88   45   47 1    
    89   45  111 1    
    90   46  112 1    
    91   46  113 1    
    92   46  114 1    
    93   47   48 2    
    94   47   49 am   BACKBONE|DICT|INTERRES
    95   49   50 1    
    96   49  115 1    
    97   50   51 1    
    98   50   52 1    
    99   50  116 1    
   100   51  117 1    
   101   51  118 1    
   102   51  119 1    
   103   52   53 2    
   104   52   54 am   BACKBONE|DICT|INTERRES
   105   54   55 1    
   106   54  120 1    
   107   55   56 1    
   108   55   57 1    
   109   55  121 1    
   110   56  122 1    
   111   56  123 1    
   112   56  124 1    
   113   57   58 2    
   114   57   59 am   BACKBONE|DICT|INTERRES
   115   59   60 1    
   116   59  125 1    
   117   60   61 1    
   118   60   62 1    
   119   60  126 1    
   120   61  127 1    
   121   61  128 1    
   122   61  129 1    
   123   62   63 2    
   124   62   64 am   BACKBONE|DICT|INTERRES
   125   64   65 1    
   126   64  130 1    
   127   65   66 1    
   128   65   69 1    
   129   65  131 1    
   130   66   67 am   BACKBONE|DICT|INTERRES
   131   66   68 2    
   132   67  132 1    
   133   67  133 1    
   134   69   70 1    
   135   69  134 1    
   136   69  135 1    
   137   70   71 1    
   138   71  136 1    
   139   71  137 1    
@<TRIPOS>SUBSTRUCTURE
     1 UNK         1 GROUP             0       ****    0 ROOT    
