@<TRIPOS>MOLECULE
3R137
137   139    1
SMALL
USER_CHARGES


@<TRIPOS>ATOM
      1 CA         28.4613   -6.4919   -2.0003 C.3       0 UNK        -0.2020 
      2 C          28.3813   -5.5188   -0.8330 C.2       0 UNK         0.4855 
      3 O          28.5952   -5.9168    0.3121 O.2       0 UNK        -0.5197 
      4 N          28.0729   -4.2490   -1.1161 N.am      1 UNK        -0.4892 
      5 CA         27.9497   -3.1685   -0.1290 C.3       1 UNK         0.0835 
      6 C6         29.2965   -2.4434    0.1576 C.3       12 UNK        -0.0855 
      7 S7         30.1582   -1.8279   -1.3330 S.3       12 UNK        -0.2931 
      8 C8         31.4712   -3.0808   -1.5476 C.3       12 UNK         0.0378 
      9 C9         31.7114   -3.3499   -3.0241 C.ar      12 UNK        -0.0802 
     10 C10        32.8854   -2.9370   -3.6618 C.ar      12 UNK        -0.0944 
     11 C11        33.0397   -3.1193   -5.0408 C.ar      12 UNK        -0.0787 
     12 C12        32.0087   -3.7116   -5.7788 C.ar      12 UNK        -0.0862 
     13 C13        30.8285   -4.1186   -5.1514 C.ar      12 UNK        -0.0733 
     14 C14        30.7119   -3.9758   -3.7679 C.ar      12 UNK        -0.0832 
     15 C15        29.6457   -4.6143   -5.9793 C.3       12 UNK         0.0240 
     16 S16        28.0461   -3.8683   -5.4797 S.3       12 UNK        -0.2522 
     17 C17        28.4524   -2.0893   -5.3348 C.3       12 UNK        -0.0967 
     18 CA         27.7586   -1.2258   -6.4072 C.3       5 UNK         0.0660 
     19 N          26.3019   -1.2408   -6.2697 N.am      5 UNK        -0.4015 
     20 C          25.4493   -0.9720   -7.2677 C.2       4 UNK         0.4946 
     21 O          25.8086   -0.6977   -8.4121 O.2       4 UNK        -0.5353 
     22 CA         23.9484   -0.9368   -6.9236 C.3       4 UNK         0.0277 
     23 CB         23.3366   -2.3404   -7.0519 C.3       4 UNK        -0.1981 
     24 N          23.6736   -0.4014   -5.5867 N.am      4 UNK        -0.4209 
     25 C          24.0510    0.8129   -5.1615 C.2       3 UNK         0.4942 
     26 O          24.5862    1.6461   -5.8917 O.2       3 UNK        -0.5208 
     27 CA         23.8773    1.1354   -3.6663 C.3       3 UNK         0.0250 
     28 CB         22.6027    1.9648   -3.4457 C.3       3 UNK        -0.1990 
     29 N          23.8609   -0.0316   -2.7730 N.am      3 UNK        -0.4232 
     30 C          24.8216   -0.9629   -2.6721 C.2       2 UNK         0.4993 
     31 O          25.8232   -1.0006   -3.3911 O.2       2 UNK        -0.5286 
     32 CA         24.5655   -2.0805   -1.6477 C.3       2 UNK         0.0209 
     33 CB         23.6005   -3.1246   -2.2360 C.3       2 UNK        -0.1931 
     34 N          25.7912   -2.7652   -1.2307 N.am      2 UNK        -0.4546 
     35 C          26.7658   -2.2367   -0.4739 C.2       1 UNK         0.5154 
     36 O          26.7246   -1.0912   -0.0208 O.2       1 UNK        -0.5181 
     37 C          28.3372    0.2039   -6.3951 C.2       5 UNK         0.5014 
     38 O          29.4843    0.3791   -6.8100 O.2       5 UNK        -0.5248 
     39 N          27.5810    1.2038   -5.9242 N.am      6 UNK        -0.4434 
     40 CA         27.9498    2.6149   -6.0552 C.3       6 UNK         0.0363 
     41 CB         27.3081    3.4371   -4.9260 C.3       6 UNK        -0.1936 
     42 C          27.5408    3.1514   -7.4363 C.2       6 UNK         0.5081 
     43 O          28.2748    3.9494   -8.0166 O.2       6 UNK        -0.5248 
     44 N          26.3881    2.6921   -7.9419 N.am      7 UNK        -0.4718 
     45 CA         25.8515    3.0446   -9.2538 C.3       7 UNK         0.0273 
     46 CB         24.3602    2.6722   -9.3116 C.3       7 UNK        -0.1935 
     47 C          26.6274    2.3986  -10.4139 C.2       7 UNK         0.5018 
     48 O          27.0734    3.1178  -11.3088 O.2       7 UNK        -0.5186 
     49 N          26.7429    1.0625  -10.4020 N.am      8 UNK        -0.4240 
     50 CA         27.3076    0.2847  -11.5065 C.3       8 UNK         0.0235 
     51 CB         26.6070   -1.0829  -11.5989 C.3       8 UNK        -0.2000 
     52 C          28.8278    0.1233  -11.3859 C.2       8 UNK         0.4941 
     53 O          29.5511    0.5434  -12.2898 O.2       8 UNK        -0.5273 
     54 N          29.2858   -0.5065  -10.2934 N.am      9 UNK        -0.4262 
     55 CA         30.6999   -0.8450  -10.0832 C.3       9 UNK         0.0264 
     56 CB         30.8226   -1.9518   -9.0212 C.3       9 UNK        -0.1955 
     57 C          31.5770    0.3680   -9.7235 C.2       9 UNK         0.5031 
     58 O          32.7701    0.3535  -10.0285 O.2       9 UNK        -0.5390 
     59 N          30.9667    1.3843   -9.0970 N.am      10 UNK        -0.4204 
     60 CA         31.5699    2.6235   -8.5954 C.3       10 UNK         0.0237 
     61 CB         32.1329    3.4802   -9.7502 C.3       10 UNK        -0.1985 
     62 C          32.5827    2.3810   -7.4598 C.2       10 UNK         0.4970 
     63 O          33.5999    3.0739   -7.3875 O.2       10 UNK        -0.4914 
     64 N          32.2762    1.4178   -6.5830 N.am      11 UNK        -0.4285 
     65 CA         33.1024    1.0493   -5.4220 C.3       11 UNK         0.1007 
     66 C          32.3116    0.4869   -4.2106 C.2       11 UNK         0.5703 
     67 N          31.0082    0.2565   -4.3022 N.am      11 UNK        -0.7361 
     68 O          32.8895    0.3024   -3.1424 O.2       11 UNK        -0.4986 
     69 C69        34.3480    0.1936   -5.7957 C.3       12 UNK        -0.0947 
     70 S70        34.0012   -1.2540   -6.8558 S.3       12 UNK        -0.2240 
     71 C71        34.3082   -2.6678   -5.7484 C.3       12 UNK         0.0194 
     72 H72        28.0754   -6.0584   -2.9230 H         1 UNK         0.0906 
     73 H73        29.4956   -6.7907   -2.1691 H         1 UNK         0.0906 
     74 H74        27.8798   -7.3875   -1.7830 H         1 UNK         0.0906 
     75 H75        27.9241   -3.9634   -2.0744 H         1 UNK         0.3140 
     76 H76        27.6372   -3.6156    0.8177 H         1 UNK         0.1085 
     77 H77        29.1454   -1.6033    0.8377 H         1 UNK         0.0836 
     78 H78        29.9596   -3.1210    0.6971 H         1 UNK         0.0836 
     79 H79        32.3822   -2.7354   -1.0567 H         1 UNK         0.0731 
     80 H80        31.1899   -4.0173   -1.0641 H         1 UNK         0.0731 
     81 H81        33.6631   -2.4467   -3.0924 H         1 UNK         0.1312 
     82 H82        32.1148   -3.8177   -6.8497 H         1 UNK         0.1406 
     83 H83        29.7993   -4.2730   -3.2774 H         1 UNK         0.1631 
     84 H84        29.5763   -5.6989   -5.8895 H         1 UNK         0.0717 
     85 H85        29.8051   -4.3978   -7.0368 H         1 UNK         0.0717 
     86 H86        28.1819   -1.7557   -4.3313 H         1 UNK         0.0934 
     87 H87        29.5312   -1.9522   -5.4032 H         1 UNK         0.0934 
     88 H88        28.0110   -1.6495   -7.3814 H         1 UNK         0.0739 
     89 H89        25.9494   -1.3936   -5.3289 H         1 UNK         0.3093 
     90 H90        23.4607   -0.2813   -7.6478 H         1 UNK         0.0818 
     91 H91        22.2575   -2.3194   -6.8985 H         1 UNK         0.0819 
     92 H92        23.5122   -2.7517   -8.0471 H         1 UNK         0.0819 
     93 H93        23.7663   -3.0373   -6.3310 H         1 UNK         0.0819 
     94 H94        23.2372   -1.0246   -4.9237 H         1 UNK         0.3041 
     95 H95        24.7346    1.7461   -3.3754 H         1 UNK         0.0784 
     96 H96        22.6004    2.8534   -4.0790 H         1 UNK         0.0793 
     97 H97        21.7033    1.3945   -3.6816 H         1 UNK         0.0793 
     98 H98        22.5240    2.3072   -2.4136 H         1 UNK         0.0793 
     99 H99        23.0609   -0.1031   -2.1600 H         1 UNK         0.3024 
    100 H100       24.1118   -1.6346   -0.7595 H         1 UNK         0.1171 
    101 H101       23.3778   -3.9106   -1.5139 H         1 UNK         0.0786 
    102 H102       24.0128   -3.5971   -3.1290 H         1 UNK         0.0786 
    103 H103       22.6487   -2.6719   -2.5171 H         1 UNK         0.0786 
    104 H104       25.8983   -3.7196   -1.5397 H         1 UNK         0.2977 
    105 H105       26.6397    1.0078   -5.6091 H         1 UNK         0.3127 
    106 H106       29.0334    2.7183   -5.9611 H         1 UNK         0.0770 
    107 H107       26.2203    3.4474   -4.9893 H         1 UNK         0.0814 
    108 H108       27.6419    4.4746   -4.9685 H         1 UNK         0.0814 
    109 H109       27.5844    3.0477   -3.9461 H         1 UNK         0.0814 
    110 H110       25.8059    2.1029   -7.3543 H         1 UNK         0.2983 
    111 H111       25.9296    4.1282   -9.3690 H         1 UNK         0.0947 
    112 H112       23.9269    2.9428  -10.2754 H         1 UNK         0.0806 
    113 H113       23.7924    3.1957   -8.5420 H         1 UNK         0.0806 
    114 H114       24.2017    1.6026   -9.1705 H         1 UNK         0.0806 
    115 H115       26.3540    0.5319   -9.6229 H         1 UNK         0.3000 
    116 H116       27.1083    0.8078  -12.4449 H         1 UNK         0.0850 
    117 H117       26.9923   -1.6612  -12.4397 H         1 UNK         0.0810 
    118 H118       25.5341   -0.9656  -11.7522 H         1 UNK         0.0810 
    119 H119       26.7484   -1.6835  -10.7001 H         1 UNK         0.0810 
    120 H120       28.6228   -0.8229   -9.6015 H         1 UNK         0.3040 
    121 H121       31.0864   -1.2501  -11.0212 H         1 UNK         0.0766 
    122 H122       31.8591   -2.2783   -8.9283 H         1 UNK         0.0812 
    123 H123       30.2321   -2.8285   -9.2870 H         1 UNK         0.0812 
    124 H124       30.5057   -1.6181   -8.0345 H         1 UNK         0.0812 
    125 H125       30.0023    1.2371   -8.8299 H         1 UNK         0.3205 
    126 H126       30.7578    3.1900   -8.1414 H         1 UNK         0.0754 
    127 H127       32.4431    4.4626   -9.3922 H         1 UNK         0.0769 
    128 H128       31.3825    3.6409  -10.5244 H         1 UNK         0.0769 
    129 H129       33.0023    3.0150  -10.2154 H         1 UNK         0.0769 
    130 H130       31.4172    0.8949   -6.7112 H         1 UNK         0.2981 
    131 H131       33.4917    1.9887   -5.0246 H         1 UNK         0.0541 
    132 H132       30.4990    0.3993   -5.1636 H         1 UNK         0.3459 
    133 H133       30.5398   -0.1103   -3.4884 H         1 UNK         0.3459 
    134 H134       34.8926   -0.1172   -4.9029 H         1 UNK         0.0612 
    135 H135       35.0493    0.8198   -6.3486 H         1 UNK         0.0612 
    136 H136       34.6871   -3.4970   -6.3474 H         1 UNK         0.0624 
    137 H137       35.0971   -2.4269   -5.0346 H         1 UNK         0.0624 
@<TRIPOS>BOND
     1    1    2 1    
     2    1   72 1    
     3    1   73 1    
     4    1   74 1    
     5    2    3 2    
     6    2    4 am   BACKBONE|DICT|INTERRES
     7    4    5 1    
     8    4   75 1    
     9    5    6 1    
    10    5   35 1    
    11    5   76 1    
    12    6    7 1    
    13    6   77 1    
    14    6   78 1    
    15    7    8 1    
    16    8    9 1    
    17    8   79 1    
    18    8   80 1    
    19    9   10 ar   
    20    9   14 ar   
    21   10   11 ar   
    22   10   81 1    
    23   11   12 ar   
    24   11   71 1    
    25   12   13 ar   
    26   12   82 1    
    27   13   14 ar   
    28   13   15 1    
    29   14   83 1    
    30   15   16 1    
    31   15   84 1    
    32   15   85 1    
    33   16   17 1    
    34   17   18 1    
    35   17   86 1    
    36   17   87 1    
    37   18   19 1    
    38   18   37 1    
    39   18   88 1    
    40   19   20 am   BACKBONE|DICT|INTERRES
    41   19   89 1    
    42   20   21 2    
    43   20   22 1    
    44   22   23 1    
    45   22   24 1    
    46   22   90 1    
    47   23   91 1    
    48   23   92 1    
    49   23   93 1    
    50   24   25 am   BACKBONE|DICT|INTERRES
    51   24   94 1    
    52   25   26 2    
    53   25   27 1    
    54   27   28 1    
    55   27   29 1    
    56   27   95 1    
    57   28   96 1    
    58   28   97 1    
    59   28   98 1    
    60   29   30 am   BACKBONE|DICT|INTERRES
    61   29   99 1    
    62   30   31 2    
    63   30   32 1    
    64   32   33 1    
    65   32   34 1    
    66   32  100 1    
    67   33  101 1    
    68   33  102 1    
    69   33  103 1    
    70   34   35 am   BACKBONE|DICT|INTERRES
    71   34  104 1    
    72   35   36 2    
    73   37   38 2    
    74   37   39 am   BACKBONE|DICT|INTERRES
    75   39   40 1    
    76   39  105 1    
    77   40   41 1    
    78   40   42 1    
    79   40  106 1    
    80   41  107 1    
    81   41  108 1    
    82   41  109 1    
    83   42   43 2    
    84   42   44 am   BACKBONE|DICT|INTERRES
    85   44   45 1    
    86   44  110 1    
    87   45   46 1    
    88   45   47 1    
    89   45  111 1    
    90   46  112 1    
    91   46  113 1    
    92   46  114 1    
    93   47   48 2    
    94   47   49 am   BACKBONE|DICT|INTERRES
    95   49   50 1    
    96   49  115 1    
    97   50   51 1    
    98   50   52 1    
    99   50  116 1    
   100   51  117 1    
   101   51  118 1    
   102   51  119 1    
   103   52   53 2    
   104   52   54 am   BACKBONE|DICT|INTERRES
   105   54   55 1    
   106   54  120 1    
   107   55   56 1    
   108   55   57 1    
   109   55  121 1    
   110   56  122 1    
   111   56  123 1    
   112   56  124 1    
   113   57   58 2    
   114   57   59 am   BACKBONE|DICT|INTERRES
   115   59   60 1    
   116   59  125 1    
   117   60   61 1    
   118   60   62 1    
   119   60  126 1    
   120   61  127 1    
   121   61  128 1    
   122   61  129 1    
   123   62   63 2    
   124   62   64 am   BACKBONE|DICT|INTERRES
   125   64   65 1    
   126   64  130 1    
   127   65   66 1    
   128   65   69 1    
   129   65  131 1    
   130   66   67 am   BACKBONE|DICT|INTERRES
   131   66   68 2    
   132   67  132 1    
   133   67  133 1    
   134   69   70 1    
   135   69  134 1    
   136   69  135 1    
   137   70   71 1    
   138   71  136 1    
   139   71  137 1    
@<TRIPOS>SUBSTRUCTURE
     1 UNK         1 GROUP             0       ****    0 ROOT    
