@<TRIPOS>MOLECULE
3R137
137   139    1
SMALL
USER_CHARGES


@<TRIPOS>ATOM
      1 CA         27.8742   -0.5259    2.7060 C.3       0 UNK        -0.2020 
      2 C          27.9087   -1.8733    1.9891 C.2       0 UNK         0.4855 
      3 O          27.6146   -2.8932    2.6089 O.2       0 UNK        -0.5197 
      4 N          28.2601   -1.9404    0.6965 N.am      1 UNK        -0.4892 
      5 CA         28.6114   -0.8215   -0.1929 C.3       1 UNK         0.0835 
      6 C6         29.3382   -1.3130   -1.4670 C.3       12 UNK        -0.0855 
      7 S7         30.9135   -2.1615   -1.1200 S.3       12 UNK        -0.2931 
      8 C8         30.6647   -3.7655   -1.9587 C.3       12 UNK         0.0378 
      9 C9         30.4443   -3.6673   -3.4697 C.ar      12 UNK        -0.0802 
     10 C10        31.1635   -2.7606   -4.2589 C.ar      12 UNK        -0.0944 
     11 C11        30.9695   -2.7117   -5.6423 C.ar      12 UNK        -0.0787 
     12 C12        30.0692   -3.5942   -6.2452 C.ar      12 UNK        -0.0862 
     13 C13        29.3414   -4.5026   -5.4731 C.ar      12 UNK        -0.0733 
     14 C14        29.5301   -4.5291   -4.0870 C.ar      12 UNK        -0.0832 
     15 C15        28.3766   -5.4789   -6.1336 C.3       12 UNK         0.0240 
     16 S16        26.7689   -4.7127   -6.5207 S.3       12 UNK        -0.2522 
     17 C17        26.9821   -4.2026   -8.2667 C.3       12 UNK        -0.0967 
     18 CA         26.5578   -2.7429   -8.5681 C.3       5 UNK         0.0660 
     19 N          25.1913   -2.4513   -8.1267 N.am      5 UNK        -0.4015 
     20 C          24.5028   -1.3468   -8.4487 C.2       4 UNK         0.4946 
     21 O          24.9191   -0.4799   -9.2164 O.2       4 UNK        -0.5353 
     22 CA         23.1429   -1.1508   -7.7562 C.3       4 UNK         0.0277 
     23 CB         22.0276   -1.8539   -8.5459 C.3       4 UNK        -0.1981 
     24 N          23.1302   -1.6106   -6.3620 N.am      4 UNK        -0.4209 
     25 C          23.9014   -1.1015   -5.3919 C.2       3 UNK         0.4942 
     26 O          24.7053   -0.1811   -5.5656 O.2       3 UNK        -0.5208 
     27 CA         23.7983   -1.7646   -4.0152 C.3       3 UNK         0.0250 
     28 CB         24.5639   -3.1024   -3.9972 C.3       3 UNK        -0.1990 
     29 N          24.3627   -0.8579   -3.0203 N.am      3 UNK        -0.4232 
     30 C          24.1471   -0.9128   -1.7029 C.2       2 UNK         0.4993 
     31 O          23.4320   -1.7546   -1.1556 O.2       2 UNK        -0.5286 
     32 CA         24.9165    0.1002   -0.8496 C.3       2 UNK         0.0209 
     33 CB         24.1510    0.5022    0.4255 C.3       2 UNK        -0.1931 
     34 N          26.1816   -0.5244   -0.4756 N.am      2 UNK        -0.4546 
     35 C          27.3907    0.0363   -0.5954 C.2       1 UNK         0.5154 
     36 O          27.5709    1.1835   -1.0042 O.2       1 UNK        -0.5181 
     37 C          27.5765   -1.7206   -8.0289 C.2       5 UNK         0.5014 
     38 O          28.4698   -1.3124   -8.7714 O.2       5 UNK        -0.5248 
     39 N          27.4059   -1.3005   -6.7676 N.am      6 UNK        -0.4434 
     40 CA         28.2311   -0.2829   -6.1219 C.3       6 UNK         0.0363 
     41 CB         27.9985   -0.2928   -4.6067 C.3       6 UNK        -0.1936 
     42 C          28.0004    1.1063   -6.7221 C.2       6 UNK         0.5081 
     43 O          28.9718    1.8034   -7.0087 O.2       6 UNK        -0.5248 
     44 N          26.7292    1.4582   -6.9571 N.am      7 UNK        -0.4718 
     45 CA         26.3276    2.6913   -7.6385 C.3       7 UNK         0.0273 
     46 CB         24.7959    2.8141   -7.6131 C.3       7 UNK        -0.1935 
     47 C          26.8621    2.7856   -9.0800 C.2       7 UNK         0.5018 
     48 O          27.2447    3.8745   -9.5097 O.2       7 UNK        -0.5186 
     49 N          26.8893    1.6484   -9.7885 N.am      8 UNK        -0.4240 
     50 CA         27.4204    1.5273  -11.1436 C.3       8 UNK         0.0235 
     51 CB         26.8789    0.2450  -11.7991 C.3       8 UNK        -0.2000 
     52 C          28.9571    1.5653  -11.1942 C.2       8 UNK         0.4941 
     53 O          29.5116    2.4154  -11.8924 O.2       8 UNK        -0.5273 
     54 N          29.6177    0.6208  -10.5082 N.am      9 UNK        -0.4262 
     55 CA         31.0487    0.3490  -10.6831 C.3       9 UNK         0.0264 
     56 CB         31.2939   -1.1658  -10.5765 C.3       9 UNK        -0.1955 
     57 C          31.9741    1.1216   -9.7293 C.2       9 UNK         0.5031 
     58 O          33.1749    1.1715  -10.0035 O.2       9 UNK        -0.5390 
     59 N          31.4421    1.6928   -8.6371 N.am      10 UNK        -0.4204 
     60 CA         32.1269    2.4738   -7.5907 C.3       10 UNK         0.0237 
     61 CB         32.7885    3.7425   -8.1652 C.3       10 UNK        -0.1985 
     62 C          33.1154    1.6748   -6.7188 C.2       10 UNK         0.4970 
     63 O          33.0531    1.7878   -5.4945 O.2       10 UNK        -0.4914 
     64 N          33.9943    0.8879   -7.3513 N.am      11 UNK        -0.4285 
     65 CA         35.0208    0.0235   -6.7377 C.3       11 UNK         0.1007 
     66 C          36.1308    0.7855   -5.9489 C.2       11 UNK         0.5703 
     67 N          36.3285    2.0796   -6.1727 N.am      11 UNK        -0.7361 
     68 O          36.8510    0.1941   -5.1474 O.2       11 UNK        -0.4986 
     69 C69        34.4173   -1.1702   -5.9382 C.3       12 UNK        -0.0947 
     70 S70        33.3572   -2.2362   -6.9739 S.3       12 UNK        -0.2240 
     71 C71        31.6985   -1.6794   -6.4859 C.3       12 UNK         0.0194 
     72 H72        28.8156    0.0100    2.5913 H         1 UNK         0.0906 
     73 H73        27.0628    0.0962    2.3299 H         1 UNK         0.0906 
     74 H74        27.7103   -0.6694    3.7739 H         1 UNK         0.0906 
     75 H75        28.3076   -2.8532    0.2671 H         1 UNK         0.3140 
     76 H76        29.2984   -0.1602    0.3382 H         1 UNK         0.1085 
     77 H77        28.6850   -1.9728   -2.0404 H         1 UNK         0.0836 
     78 H78        29.5776   -0.4713   -2.1190 H         1 UNK         0.0836 
     79 H79        29.8252   -4.2741   -1.4822 H         1 UNK         0.0731 
     80 H80        31.5418   -4.3886   -1.7800 H         1 UNK         0.0731 
     81 H81        31.8732   -2.0871   -3.7989 H         1 UNK         0.1312 
     82 H82        29.9276   -3.5639   -7.3164 H         1 UNK         0.1406 
     83 H83        28.9742   -5.2384   -3.4886 H         1 UNK         0.1631 
     84 H84        28.1964   -6.3262   -5.4703 H         1 UNK         0.0717 
     85 H85        28.8254   -5.9019   -7.0334 H         1 UNK         0.0717 
     86 H86        28.0111   -4.3698   -8.5898 H         1 UNK         0.0934 
     87 H87        26.3815   -4.8802   -8.8755 H         1 UNK         0.0934 
     88 H88        26.5629   -2.6291   -9.6545 H         1 UNK         0.0739 
     89 H89        24.7784   -3.1162   -7.4893 H         1 UNK         0.3093 
     90 H90        22.9323   -0.0793   -7.7511 H         1 UNK         0.0818 
     91 H91        21.0462   -1.6427   -8.1206 H         1 UNK         0.0819 
     92 H92        22.0091   -1.5115   -9.5817 H         1 UNK         0.0819 
     93 H93        22.1612   -2.9363   -8.5632 H         1 UNK         0.0819 
     94 H94        22.4959   -2.3643   -6.1372 H         1 UNK         0.3041 
     95 H95        22.7432   -1.9346   -3.7900 H         1 UNK         0.0784 
     96 H96        24.1858   -3.7894   -4.7550 H         1 UNK         0.0793 
     97 H97        25.6288   -2.9588   -4.1854 H         1 UNK         0.0793 
     98 H98        24.4640   -3.6056   -3.0354 H         1 UNK         0.0793 
     99 H99        24.9314   -0.1208   -3.4190 H         1 UNK         0.3024 
    100 H100       25.0829    0.9991   -1.4485 H         1 UNK         0.1171 
    101 H101       24.6984    1.2561    0.9915 H         1 UNK         0.0786 
    102 H102       23.1767    0.9253    0.1780 H         1 UNK         0.0786 
    103 H103       23.9808   -0.3499    1.0850 H         1 UNK         0.0786 
    104 H104       26.1248   -1.4845   -0.1626 H         1 UNK         0.2977 
    105 H105       26.6258   -1.6593   -6.2380 H         1 UNK         0.3127 
    106 H106       29.2737   -0.5370   -6.2977 H         1 UNK         0.0770 
    107 H107       26.9821   -0.0081   -4.3409 H         1 UNK         0.0814 
    108 H108       28.1925   -1.2827   -4.1958 H         1 UNK         0.0814 
    109 H109       28.6697    0.4104   -4.1129 H         1 UNK         0.0814 
    110 H110       25.9879    0.8333   -6.6511 H         1 UNK         0.2983 
    111 H111       26.7485    3.5284   -7.0774 H         1 UNK         0.0947 
    112 H112       24.4127    2.7969   -6.5926 H         1 UNK         0.0806 
    113 H113       24.3174    2.0037   -8.1634 H         1 UNK         0.0806 
    114 H114       24.4726    3.7518   -8.0668 H         1 UNK         0.0806 
    115 H115       26.4766    0.8153   -9.3804 H         1 UNK         0.3000 
    116 H116       27.0520    2.3745  -11.7264 H         1 UNK         0.0850 
    117 H117       27.2639    0.1307  -12.8133 H         1 UNK         0.0810 
    118 H118       25.7909    0.2662  -11.8659 H         1 UNK         0.0810 
    119 H119       27.1581   -0.6485  -11.2398 H         1 UNK         0.0810 
    120 H120       29.0988   -0.0366   -9.9262 H         1 UNK         0.3040 
    121 H121       31.3421    0.6433  -11.6934 H         1 UNK         0.0766 
    122 H122       30.9822   -1.5643   -9.6134 H         1 UNK         0.0812 
    123 H123       32.3512   -1.4046  -10.7004 H         1 UNK         0.0812 
    124 H124       30.7486   -1.7074  -11.3493 H         1 UNK         0.0812 
    125 H125       30.4477    1.5713   -8.4712 H         1 UNK         0.3205 
    126 H126       31.3384    2.8121   -6.9178 H         1 UNK         0.0754 
    127 H127       33.1962    4.3631   -7.3661 H         1 UNK         0.0769 
    128 H128       32.0666    4.3507   -8.7104 H         1 UNK         0.0769 
    129 H129       33.6096    3.5097   -8.8436 H         1 UNK         0.0769 
    130 H130       33.9510    0.8799   -8.3682 H         1 UNK         0.2981 
    131 H131       35.5574   -0.4080   -7.5831 H         1 UNK         0.0541 
    132 H132       35.7576    2.5756   -6.8377 H         1 UNK         0.3459 
    133 H133       37.0551    2.5625   -5.6683 H         1 UNK         0.3459 
    134 H134       33.8689   -0.8200   -5.0628 H         1 UNK         0.0612 
    135 H135       35.2130   -1.8097   -5.5528 H         1 UNK         0.0612 
    136 H136       31.1279   -1.4660   -7.3883 H         1 UNK         0.0624 
    137 H137       31.7479   -0.7366   -5.9419 H         1 UNK         0.0624 
@<TRIPOS>BOND
     1    1    2 1    
     2    1   72 1    
     3    1   73 1    
     4    1   74 1    
     5    2    3 2    
     6    2    4 am   BACKBONE|DICT|INTERRES
     7    4    5 1    
     8    4   75 1    
     9    5    6 1    
    10    5   35 1    
    11    5   76 1    
    12    6    7 1    
    13    6   77 1    
    14    6   78 1    
    15    7    8 1    
    16    8    9 1    
    17    8   79 1    
    18    8   80 1    
    19    9   10 ar   
    20    9   14 ar   
    21   10   11 ar   
    22   10   81 1    
    23   11   12 ar   
    24   11   71 1    
    25   12   13 ar   
    26   12   82 1    
    27   13   14 ar   
    28   13   15 1    
    29   14   83 1    
    30   15   16 1    
    31   15   84 1    
    32   15   85 1    
    33   16   17 1    
    34   17   18 1    
    35   17   86 1    
    36   17   87 1    
    37   18   19 1    
    38   18   37 1    
    39   18   88 1    
    40   19   20 am   BACKBONE|DICT|INTERRES
    41   19   89 1    
    42   20   21 2    
    43   20   22 1    
    44   22   23 1    
    45   22   24 1    
    46   22   90 1    
    47   23   91 1    
    48   23   92 1    
    49   23   93 1    
    50   24   25 am   BACKBONE|DICT|INTERRES
    51   24   94 1    
    52   25   26 2    
    53   25   27 1    
    54   27   28 1    
    55   27   29 1    
    56   27   95 1    
    57   28   96 1    
    58   28   97 1    
    59   28   98 1    
    60   29   30 am   BACKBONE|DICT|INTERRES
    61   29   99 1    
    62   30   31 2    
    63   30   32 1    
    64   32   33 1    
    65   32   34 1    
    66   32  100 1    
    67   33  101 1    
    68   33  102 1    
    69   33  103 1    
    70   34   35 am   BACKBONE|DICT|INTERRES
    71   34  104 1    
    72   35   36 2    
    73   37   38 2    
    74   37   39 am   BACKBONE|DICT|INTERRES
    75   39   40 1    
    76   39  105 1    
    77   40   41 1    
    78   40   42 1    
    79   40  106 1    
    80   41  107 1    
    81   41  108 1    
    82   41  109 1    
    83   42   43 2    
    84   42   44 am   BACKBONE|DICT|INTERRES
    85   44   45 1    
    86   44  110 1    
    87   45   46 1    
    88   45   47 1    
    89   45  111 1    
    90   46  112 1    
    91   46  113 1    
    92   46  114 1    
    93   47   48 2    
    94   47   49 am   BACKBONE|DICT|INTERRES
    95   49   50 1    
    96   49  115 1    
    97   50   51 1    
    98   50   52 1    
    99   50  116 1    
   100   51  117 1    
   101   51  118 1    
   102   51  119 1    
   103   52   53 2    
   104   52   54 am   BACKBONE|DICT|INTERRES
   105   54   55 1    
   106   54  120 1    
   107   55   56 1    
   108   55   57 1    
   109   55  121 1    
   110   56  122 1    
   111   56  123 1    
   112   56  124 1    
   113   57   58 2    
   114   57   59 am   BACKBONE|DICT|INTERRES
   115   59   60 1    
   116   59  125 1    
   117   60   61 1    
   118   60   62 1    
   119   60  126 1    
   120   61  127 1    
   121   61  128 1    
   122   61  129 1    
   123   62   63 2    
   124   62   64 am   BACKBONE|DICT|INTERRES
   125   64   65 1    
   126   64  130 1    
   127   65   66 1    
   128   65   69 1    
   129   65  131 1    
   130   66   67 am   BACKBONE|DICT|INTERRES
   131   66   68 2    
   132   67  132 1    
   133   67  133 1    
   134   69   70 1    
   135   69  134 1    
   136   69  135 1    
   137   70   71 1    
   138   71  136 1    
   139   71  137 1    
@<TRIPOS>SUBSTRUCTURE
     1 UNK         1 GROUP             0       ****    0 ROOT    
