@<TRIPOS>MOLECULE
3R137
137   139    1
SMALL
USER_CHARGES


@<TRIPOS>ATOM
      1 CA         29.1957   -2.9913   -5.0887 C.3       0 UNK        -0.2020 
      2 C          28.3788   -3.9940   -4.2973 C.2       0 UNK         0.4855 
      3 O          27.7032   -4.8386   -4.8848 O.2       0 UNK        -0.5197 
      4 N          28.4208   -3.9018   -2.9647 N.am      1 UNK        -0.4892 
      5 CA         27.7449   -4.8095   -2.0306 C.3       1 UNK         0.0835 
      6 C6         28.5172   -4.9437   -0.6896 C.3       12 UNK        -0.0855 
      7 S7         30.2333   -5.5392   -0.9110 S.3       12 UNK        -0.2931 
      8 C8         31.2303   -4.1621   -0.2506 C.3       12 UNK         0.0378 
      9 C9         31.2416   -2.9640   -1.1892 C.ar      12 UNK        -0.0802 
     10 C10        32.1662   -2.8900   -2.2347 C.ar      12 UNK        -0.0944 
     11 C11        32.1762   -1.7980   -3.1109 C.ar      12 UNK        -0.0787 
     12 C12        31.2329   -0.7753   -2.9325 C.ar      12 UNK        -0.0862 
     13 C13        30.2909   -0.8493   -1.9000 C.ar      12 UNK        -0.0733 
     14 C14        30.3239   -1.9283   -1.0140 C.ar      12 UNK        -0.0832 
     15 C15        29.2087    0.2081   -1.7458 C.3       12 UNK         0.0240 
     16 S16        27.5627   -0.5421   -1.9797 S.3       12 UNK        -0.2522 
     17 C17        26.7376    0.5703   -3.1598 C.3       12 UNK        -0.0967 
     18 CA         26.7675    0.0081   -4.6143 C.3       5 UNK         0.0660 
     19 N          25.5167    0.2639   -5.3253 N.am      5 UNK        -0.4015 
     20 C          25.0430    1.4573   -5.7182 C.2       4 UNK         0.4946 
     21 O          25.6911    2.5028   -5.6403 O.2       4 UNK        -0.5353 
     22 CA         23.6045    1.5115   -6.2779 C.3       4 UNK         0.0277 
     23 CB         23.5638    2.1119   -7.6939 C.3       4 UNK        -0.1981 
     24 N          22.9266    0.2095   -6.2731 N.am      4 UNK        -0.4209 
     25 C          22.4080   -0.3677   -5.1797 C.2       3 UNK         0.4942 
     26 O          22.3734    0.1779   -4.0751 O.2       3 UNK        -0.5208 
     27 CA         21.8645   -1.8027   -5.3149 C.3       3 UNK         0.0250 
     28 CB         22.0105   -2.4171   -6.7278 C.3       3 UNK        -0.1990 
     29 N          22.4549   -2.6822   -4.2971 N.am      3 UNK        -0.4232 
     30 C          23.7530   -2.9889   -4.1464 C.2       2 UNK         0.4993 
     31 O          24.6472   -2.5857   -4.8961 O.2       2 UNK        -0.5286 
     32 CA         24.0973   -3.8981   -2.9554 C.3       2 UNK         0.0209 
     33 CB         23.3183   -5.2289   -3.0023 C.3       2 UNK        -0.1931 
     34 N          25.5315   -4.1863   -2.9273 N.am      2 UNK        -0.4546 
     35 C          26.2567   -4.4303   -1.8288 C.2       1 UNK         0.5154 
     36 O          25.7846   -4.3776   -0.6909 O.2       1 UNK        -0.5181 
     37 C          27.9763    0.4273   -5.4728 C.2       5 UNK         0.5014 
     38 O          28.1938   -0.1640   -6.5338 O.2       5 UNK        -0.5248 
     39 N          28.7190    1.4540   -5.0410 N.am      6 UNK        -0.4434 
     40 CA         29.8800    1.9955   -5.7431 C.3       6 UNK         0.0363 
     41 CB         30.5369    3.0910   -4.8893 C.3       6 UNK        -0.1936 
     42 C          29.5572    2.5240   -7.1472 C.2       6 UNK         0.5081 
     43 O          30.3988    2.3967   -8.0331 O.2       6 UNK        -0.5248 
     44 N          28.3427    3.0560   -7.3407 N.am      7 UNK        -0.4718 
     45 CA         27.8548    3.5202   -8.6401 C.3       7 UNK         0.0273 
     46 CB         26.7315    4.5452   -8.4211 C.3       7 UNK        -0.1935 
     47 C          27.3898    2.3762   -9.5603 C.2       7 UNK         0.5018 
     48 O          27.3057    2.5921  -10.7696 O.2       7 UNK        -0.5186 
     49 N          27.1040    1.1914   -8.9975 N.am      8 UNK        -0.4240 
     50 CA         26.7617   -0.0109   -9.7607 C.3       8 UNK         0.0235 
     51 CB         25.8813   -0.9582   -8.9223 C.3       8 UNK        -0.2000 
     52 C          28.0285   -0.7329  -10.2372 C.2       8 UNK         0.4941 
     53 O          28.1405   -1.0450  -11.4230 O.2       8 UNK        -0.5273 
     54 N          28.9526   -0.9914   -9.3023 N.am      9 UNK        -0.4262 
     55 CA         30.1693   -1.7714   -9.5474 C.3       9 UNK         0.0264 
     56 CB         30.5309   -2.5290   -8.2626 C.3       9 UNK        -0.1955 
     57 C          31.3661   -0.9469  -10.0554 C.2       9 UNK         0.5031 
     58 O          32.3589   -1.5514  -10.4640 O.2       9 UNK        -0.5390 
     59 N          31.2697    0.3914  -10.0178 N.am      10 UNK        -0.4204 
     60 CA         32.3223    1.3655  -10.3431 C.3       10 UNK         0.0237 
     61 CB         32.7308    1.2840  -11.8306 C.3       10 UNK        -0.1985 
     62 C          33.5146    1.2671   -9.3698 C.2       10 UNK         0.4970 
     63 O          34.6682    1.2216   -9.8025 O.2       10 UNK        -0.4914 
     64 N          33.2032    1.2146   -8.0684 N.am      11 UNK        -0.4285 
     65 CA         34.1806    1.1366   -6.9714 C.3       11 UNK         0.1007 
     66 C          34.9672    2.4636   -6.7952 C.2       11 UNK         0.5703 
     67 N          36.2354    2.3875   -6.4150 N.am      11 UNK        -0.7361 
     68 O          34.4287    3.5574   -6.9575 O.2       11 UNK        -0.4986 
     69 C69        33.5225    0.7080   -5.6325 C.3       12 UNK        -0.0947 
     70 S70        32.7006   -0.9186   -5.7542 S.3       12 UNK        -0.2240 
     71 C71        33.2272   -1.7636   -4.2229 C.3       12 UNK         0.0194 
     72 H72        29.3868   -2.0864   -4.5155 H         1 UNK         0.0906 
     73 H73        30.1531   -3.4251   -5.3757 H         1 UNK         0.0906 
     74 H74        28.6565   -2.7084   -5.9913 H         1 UNK         0.0906 
     75 H75        28.9894   -3.1842   -2.5349 H         1 UNK         0.3140 
     76 H76        27.7301   -5.8052   -2.4801 H         1 UNK         0.1085 
     77 H77        28.5103   -4.0001   -0.1440 H         1 UNK         0.0836 
     78 H78        28.0150   -5.6624   -0.0391 H         1 UNK         0.0836 
     79 H79        30.8584   -3.8780    0.7352 H         1 UNK         0.0731 
     80 H80        32.2519   -4.5129   -0.0966 H         1 UNK         0.0731 
     81 H81        32.8819   -3.6904   -2.3658 H         1 UNK         0.1312 
     82 H82        31.2176    0.0698   -3.6054 H         1 UNK         0.1406 
     83 H83        29.6067   -1.9722   -0.2055 H         1 UNK         0.1631 
     84 H84        29.3684    1.0289   -2.4430 H         1 UNK         0.0717 
     85 H85        29.2637    0.6412   -0.7461 H         1 UNK         0.0717 
     86 H86        27.0931    1.5966   -3.0657 H         1 UNK         0.0934 
     87 H87        25.7021    0.6175   -2.8170 H         1 UNK         0.0934 
     88 H88        26.8228   -1.0797   -4.5551 H         1 UNK         0.0739 
     89 H89        24.9374   -0.5589   -5.4487 H         1 UNK         0.3093 
     90 H90        23.0428    2.1835   -5.6252 H         1 UNK         0.0818 
     91 H91        22.5635    2.0571   -8.1237 H         1 UNK         0.0819 
     92 H92        23.8362    3.1665   -7.6686 H         1 UNK         0.0819 
     93 H93        24.2523    1.6179   -8.3771 H         1 UNK         0.0819 
     94 H94        22.9134   -0.3051   -7.1419 H         1 UNK         0.3041 
     95 H95        20.7983   -1.7429   -5.0911 H         1 UNK         0.0784 
     96 H96        21.4704   -1.8318   -7.4732 H         1 UNK         0.0793 
     97 H97        23.0511   -2.4887   -7.0469 H         1 UNK         0.0793 
     98 H98        21.5927   -3.4236   -6.7572 H         1 UNK         0.0793 
     99 H99        21.8038   -3.0334   -3.6088 H         1 UNK         0.3024 
    100 H100       23.8253   -3.3507   -2.0498 H         1 UNK         0.1171 
    101 H101       23.5772   -5.8699   -2.1593 H         1 UNK         0.0786 
    102 H102       23.5290   -5.7831   -3.9180 H         1 UNK         0.0786 
    103 H103       22.2408   -5.0693   -2.9560 H         1 UNK         0.0786 
    104 H104       25.9964   -4.1895   -3.8305 H         1 UNK         0.2977 
    105 H105       28.4360    1.9323   -4.1994 H         1 UNK         0.3127 
    106 H106       30.5852    1.1741   -5.8687 H         1 UNK         0.0770 
    107 H107       29.8498    3.9144   -4.6903 H         1 UNK         0.0814 
    108 H108       31.4069    3.5117   -5.3962 H         1 UNK         0.0814 
    109 H109       30.8803    2.6994   -3.9318 H         1 UNK         0.0814 
    110 H110       27.6855    3.0817   -6.5692 H         1 UNK         0.2983 
    111 H111       28.6725    4.0282   -9.1569 H         1 UNK         0.0947 
    112 H112       26.3224    4.8915   -9.3713 H         1 UNK         0.0806 
    113 H113       27.0977    5.4228   -7.8883 H         1 UNK         0.0806 
    114 H114       25.9102    4.1252   -7.8432 H         1 UNK         0.0806 
    115 H115       27.2638    1.0725   -8.0048 H         1 UNK         0.3000 
    116 H116       26.1878    0.2756  -10.6450 H         1 UNK         0.0850 
    117 H117       25.6623   -1.8717   -9.4770 H         1 UNK         0.0810 
    118 H118       24.9239   -0.5060   -8.6743 H         1 UNK         0.0810 
    119 H119       26.3600   -1.2586   -7.9906 H         1 UNK         0.0810 
    120 H120       28.7673   -0.7122   -8.3417 H         1 UNK         0.3040 
    121 H121       29.9639   -2.5183  -10.3175 H         1 UNK         0.0766 
    122 H122       31.4959   -3.0309   -8.3463 H         1 UNK         0.0812 
    123 H123       30.5824   -1.8545   -7.4094 H         1 UNK         0.0812 
    124 H124       29.7891   -3.2962   -8.0423 H         1 UNK         0.0812 
    125 H125       30.4346    0.7916   -9.6092 H         1 UNK         0.3205 
    126 H126       31.8867    2.3534  -10.1886 H         1 UNK         0.0754 
    127 H127       33.4108    2.0960  -12.0910 H         1 UNK         0.0769 
    128 H128       31.8626    1.3665  -12.4845 H         1 UNK         0.0769 
    129 H129       33.2404    0.3493  -12.0657 H         1 UNK         0.0769 
    130 H130       32.2334    1.3355   -7.8070 H         1 UNK         0.2981 
    131 H131       34.9015    0.3630   -7.2446 H         1 UNK         0.0541 
    132 H132       36.6842    1.4968   -6.2677 H         1 UNK         0.3459 
    133 H133       36.7577    3.2391   -6.2804 H         1 UNK         0.3459 
    134 H134       32.7961    1.4488   -5.3030 H         1 UNK         0.0612 
    135 H135       34.2786    0.6675   -4.8473 H         1 UNK         0.0612 
    136 H136       33.4841   -2.7863   -4.5032 H         1 UNK         0.0624 
    137 H137       34.1443   -1.3221   -3.8332 H         1 UNK         0.0624 
@<TRIPOS>BOND
     1    1    2 1    
     2    1   72 1    
     3    1   73 1    
     4    1   74 1    
     5    2    3 2    
     6    2    4 am   BACKBONE|DICT|INTERRES
     7    4    5 1    
     8    4   75 1    
     9    5    6 1    
    10    5   35 1    
    11    5   76 1    
    12    6    7 1    
    13    6   77 1    
    14    6   78 1    
    15    7    8 1    
    16    8    9 1    
    17    8   79 1    
    18    8   80 1    
    19    9   10 ar   
    20    9   14 ar   
    21   10   11 ar   
    22   10   81 1    
    23   11   12 ar   
    24   11   71 1    
    25   12   13 ar   
    26   12   82 1    
    27   13   14 ar   
    28   13   15 1    
    29   14   83 1    
    30   15   16 1    
    31   15   84 1    
    32   15   85 1    
    33   16   17 1    
    34   17   18 1    
    35   17   86 1    
    36   17   87 1    
    37   18   19 1    
    38   18   37 1    
    39   18   88 1    
    40   19   20 am   BACKBONE|DICT|INTERRES
    41   19   89 1    
    42   20   21 2    
    43   20   22 1    
    44   22   23 1    
    45   22   24 1    
    46   22   90 1    
    47   23   91 1    
    48   23   92 1    
    49   23   93 1    
    50   24   25 am   BACKBONE|DICT|INTERRES
    51   24   94 1    
    52   25   26 2    
    53   25   27 1    
    54   27   28 1    
    55   27   29 1    
    56   27   95 1    
    57   28   96 1    
    58   28   97 1    
    59   28   98 1    
    60   29   30 am   BACKBONE|DICT|INTERRES
    61   29   99 1    
    62   30   31 2    
    63   30   32 1    
    64   32   33 1    
    65   32   34 1    
    66   32  100 1    
    67   33  101 1    
    68   33  102 1    
    69   33  103 1    
    70   34   35 am   BACKBONE|DICT|INTERRES
    71   34  104 1    
    72   35   36 2    
    73   37   38 2    
    74   37   39 am   BACKBONE|DICT|INTERRES
    75   39   40 1    
    76   39  105 1    
    77   40   41 1    
    78   40   42 1    
    79   40  106 1    
    80   41  107 1    
    81   41  108 1    
    82   41  109 1    
    83   42   43 2    
    84   42   44 am   BACKBONE|DICT|INTERRES
    85   44   45 1    
    86   44  110 1    
    87   45   46 1    
    88   45   47 1    
    89   45  111 1    
    90   46  112 1    
    91   46  113 1    
    92   46  114 1    
    93   47   48 2    
    94   47   49 am   BACKBONE|DICT|INTERRES
    95   49   50 1    
    96   49  115 1    
    97   50   51 1    
    98   50   52 1    
    99   50  116 1    
   100   51  117 1    
   101   51  118 1    
   102   51  119 1    
   103   52   53 2    
   104   52   54 am   BACKBONE|DICT|INTERRES
   105   54   55 1    
   106   54  120 1    
   107   55   56 1    
   108   55   57 1    
   109   55  121 1    
   110   56  122 1    
   111   56  123 1    
   112   56  124 1    
   113   57   58 2    
   114   57   59 am   BACKBONE|DICT|INTERRES
   115   59   60 1    
   116   59  125 1    
   117   60   61 1    
   118   60   62 1    
   119   60  126 1    
   120   61  127 1    
   121   61  128 1    
   122   61  129 1    
   123   62   63 2    
   124   62   64 am   BACKBONE|DICT|INTERRES
   125   64   65 1    
   126   64  130 1    
   127   65   66 1    
   128   65   69 1    
   129   65  131 1    
   130   66   67 am   BACKBONE|DICT|INTERRES
   131   66   68 2    
   132   67  132 1    
   133   67  133 1    
   134   69   70 1    
   135   69  134 1    
   136   69  135 1    
   137   70   71 1    
   138   71  136 1    
   139   71  137 1    
@<TRIPOS>SUBSTRUCTURE
     1 UNK         1 GROUP             0       ****    0 ROOT    
