@<TRIPOS>MOLECULE
3R137
137   139    1
SMALL
USER_CHARGES


@<TRIPOS>ATOM
      1 CA         26.9472   -6.5770    0.7690 C.3       0 UNK        -0.2020 
      2 C          26.9906   -5.0666    0.9454 C.2       0 UNK         0.4855 
      3 O          26.3205   -4.5338    1.8302 O.2       0 UNK        -0.5197 
      4 N          27.7761   -4.3741    0.1103 N.am      1 UNK        -0.4892 
      5 CA         27.9339   -2.9126    0.1244 C.3       1 UNK         0.0835 
      6 C6         29.1816   -2.4573   -0.6704 C.3       12 UNK        -0.0855 
      7 S7         30.7470   -3.0543    0.0636 S.3       12 UNK        -0.2931 
      8 C8         31.1268   -4.5641   -0.8900 C.3       12 UNK         0.0378 
      9 C9         31.2821   -4.2879   -2.3781 C.ar      12 UNK        -0.0802 
     10 C10        32.4209   -3.6330   -2.8579 C.ar      12 UNK        -0.0944 
     11 C11        32.5491   -3.3438   -4.2195 C.ar      12 UNK        -0.0787 
     12 C12        31.5362   -3.7248   -5.1023 C.ar      12 UNK        -0.0862 
     13 C13        30.3913   -4.3738   -4.6345 C.ar      12 UNK        -0.0733 
     14 C14        30.2783   -4.6709   -3.2740 C.ar      12 UNK        -0.0832 
     15 C15        29.2616   -4.7213   -5.5940 C.3       12 UNK         0.0240 
     16 S16        27.7699   -3.7266   -5.2659 S.3       12 UNK        -0.2522 
     17 C17        28.3658   -2.0227   -5.5554 C.3       12 UNK        -0.0967 
     18 CA         27.6062   -1.3092   -6.6980 C.3       5 UNK         0.0660 
     19 N          26.1594   -1.2711   -6.4635 N.am      5 UNK        -0.4015 
     20 C          25.2478   -0.9568   -7.3956 C.2       4 UNK         0.4946 
     21 O          25.5321   -0.6744   -8.5583 O.2       4 UNK        -0.5353 
     22 CA         23.7732   -0.9048   -6.9564 C.3       4 UNK         0.0277 
     23 CB         23.1242   -2.2907   -7.0979 C.3       4 UNK        -0.1981 
     24 N          23.5898   -0.4186   -5.5877 N.am      4 UNK        -0.4209 
     25 C          23.9916    0.7775   -5.1332 C.2       3 UNK         0.4942 
     26 O          24.4896    1.6457   -5.8485 O.2       3 UNK        -0.5208 
     27 CA         23.8759    1.0285   -3.6190 C.3       3 UNK         0.0250 
     28 CB         22.6038    1.8314   -3.3052 C.3       3 UNK        -0.1990 
     29 N          23.8975   -0.1938   -2.8040 N.am      3 UNK        -0.4232 
     30 C          24.9068   -1.0761   -2.7639 C.2       2 UNK         0.4993 
     31 O          25.9322   -0.9769   -3.4426 O.2       2 UNK        -0.5286 
     32 CA         24.6872   -2.3181   -1.8854 C.3       2 UNK         0.0209 
     33 CB         24.0391   -3.4400   -2.7142 C.3       2 UNK        -0.1931 
     34 N          25.9310   -2.8237   -1.3031 N.am      2 UNK        -0.4546 
     35 C          26.6704   -2.1849   -0.3845 C.2       1 UNK         0.5154 
     36 O          26.3774   -1.0828    0.0829 O.2       1 UNK        -0.5181 
     37 C          28.1758    0.1055   -6.9222 C.2       5 UNK         0.5014 
     38 O          29.0549    0.2822   -7.7691 O.2       5 UNK        -0.5248 
     39 N          27.6493    1.0892   -6.1773 N.am      6 UNK        -0.4434 
     40 CA         27.9781    2.5064   -6.3273 C.3       6 UNK         0.0363 
     41 CB         27.5022    3.2904   -5.0939 C.3       6 UNK        -0.1936 
     42 C          27.3886    3.0932   -7.6188 C.2       6 UNK         0.5081 
     43 O          28.0890    3.8243   -8.3168 O.2       6 UNK        -0.5248 
     44 N          26.1387    2.7288   -7.9424 N.am      7 UNK        -0.4718 
     45 CA         25.4504    3.1081   -9.1818 C.3       7 UNK         0.0273 
     46 CB         23.9821    2.6605   -9.1165 C.3       7 UNK        -0.1935 
     47 C          26.1342    2.5523  -10.4436 C.2       7 UNK         0.5018 
     48 O          26.2407    3.2690  -11.4392 O.2       7 UNK        -0.5186 
     49 N          26.6223    1.3060  -10.3655 N.am      8 UNK        -0.4240 
     50 CA         27.4460    0.6620  -11.3933 C.3       8 UNK         0.0235 
     51 CB         27.4693   -0.8543  -11.1367 C.3       8 UNK        -0.2000 
     52 C          28.8865    1.2058  -11.4640 C.2       8 UNK         0.4941 
     53 O          29.5805    0.9112  -12.4380 O.2       8 UNK        -0.5273 
     54 N          29.3127    1.9608  -10.4387 N.am      9 UNK        -0.4262 
     55 CA         30.6527    2.5166  -10.2257 C.3       9 UNK         0.0264 
     56 CB         30.9739    3.5992  -11.2779 C.3       9 UNK        -0.1955 
     57 C          31.7324    1.4224  -10.1268 C.2       9 UNK         0.5031 
     58 O          32.8006    1.5527  -10.7282 O.2       9 UNK        -0.5390 
     59 N          31.4296    0.3563   -9.3711 N.am      10 UNK        -0.4204 
     60 CA         32.3022   -0.8079   -9.1908 C.3       10 UNK         0.0237 
     61 CB         31.5032   -1.9385   -8.5254 C.3       10 UNK        -0.1985 
     62 C          33.5796   -0.4989   -8.3892 C.2       10 UNK         0.4970 
     63 O          34.6282   -1.0756   -8.6803 O.2       10 UNK        -0.4914 
     64 N          33.4683    0.4047   -7.4102 N.am      11 UNK        -0.4285 
     65 CA         34.5625    0.8694   -6.5435 C.3       11 UNK         0.1007 
     66 C          34.3229    2.2948   -5.9649 C.2       11 UNK         0.5703 
     67 N          33.4003    3.0834   -6.5066 N.am      11 UNK        -0.7361 
     68 O          34.9970    2.7111   -5.0256 O.2       11 UNK        -0.4986 
     69 C69        34.9886   -0.1843   -5.4788 C.3       12 UNK        -0.0947 
     70 S70        33.6034   -0.8103   -4.4669 S.3       12 UNK        -0.2240 
     71 C71        33.7678   -2.6009   -4.7396 C.3       12 UNK         0.0194 
     72 H72        25.9299   -6.8996    0.5487 H         1 UNK         0.0906 
     73 H73        27.2700   -7.0706    1.6853 H         1 UNK         0.0906 
     74 H74        27.5927   -6.9137   -0.0420 H         1 UNK         0.0906 
     75 H75        28.3142   -4.8666   -0.5856 H         1 UNK         0.3140 
     76 H76        28.0690   -2.6047    1.1642 H         1 UNK         0.1085 
     77 H77        29.1063   -2.7508   -1.7176 H         1 UNK         0.0836 
     78 H78        29.2399   -1.3669   -0.6797 H         1 UNK         0.0836 
     79 H79        32.0546   -4.9928   -0.5082 H         1 UNK         0.0731 
     80 H80        30.3562   -5.3143   -0.7107 H         1 UNK         0.0731 
     81 H81        33.1954   -3.3264   -2.1679 H         1 UNK         0.1312 
     82 H82        31.6310   -3.4978   -6.1533 H         1 UNK         0.1406 
     83 H83        29.3893   -5.1703   -2.9143 H         1 UNK         0.1631 
     84 H84        29.0135   -5.7786   -5.4917 H         1 UNK         0.0717 
     85 H85        29.5673   -4.5750   -6.6313 H         1 UNK         0.0717 
     86 H86        28.2682   -1.4717   -4.6180 H         1 UNK         0.0934 
     87 H87        29.4329   -2.0392   -5.7774 H         1 UNK         0.0934 
     88 H88        27.7771   -1.8731   -7.6178 H         1 UNK         0.0739 
     89 H89        25.8634   -1.4494   -5.5103 H         1 UNK         0.3093 
     90 H90        23.2536   -0.2139   -7.6225 H         1 UNK         0.0818 
     91 H91        23.2291   -2.6669   -8.1167 H         1 UNK         0.0819 
     92 H92        23.5826   -3.0231   -6.4318 H         1 UNK         0.0819 
     93 H93        22.0573   -2.2550   -6.8768 H         1 UNK         0.0819 
     94 H94        23.1796   -1.0618   -4.9274 H         1 UNK         0.3041 
     95 H95        24.7403    1.6295   -3.3283 H         1 UNK         0.0784 
     96 H96        22.5758    2.7579   -3.8809 H         1 UNK         0.0793 
     97 H97        21.7005    1.2701   -3.5476 H         1 UNK         0.0793 
     98 H98        22.5572    2.1070   -2.2514 H         1 UNK         0.0793 
     99 H99        23.0831   -0.3608   -2.2297 H         1 UNK         0.3024 
    100 H100       24.0193   -2.0525   -1.0627 H         1 UNK         0.1171 
    101 H101       23.0840   -3.1204   -3.1331 H         1 UNK         0.0786 
    102 H102       24.6754   -3.7444   -3.5470 H         1 UNK         0.0786 
    103 H103       23.8418   -4.3215   -2.1037 H         1 UNK         0.0786 
    104 H104       26.2604   -3.7154   -1.6405 H         1 UNK         0.2977 
    105 H105       26.9126    0.8592   -5.5251 H         1 UNK         0.3127 
    106 H106       29.0651    2.5976   -6.3856 H         1 UNK         0.0770 
    107 H107       26.4192    3.2514   -4.9761 H         1 UNK         0.0814 
    108 H108       27.7813    4.3419   -5.1729 H         1 UNK         0.0814 
    109 H109       27.9534    2.9040   -4.1799 H         1 UNK         0.0814 
    110 H110       25.6061    2.1771   -7.2731 H         1 UNK         0.2983 
    111 H111       25.4723    4.1980   -9.2487 H         1 UNK         0.0947 
    112 H112       23.8943    1.5751   -9.0727 H         1 UNK         0.0806 
    113 H113       23.4333    2.9961   -9.9973 H         1 UNK         0.0806 
    114 H114       23.4784    3.0733   -8.2421 H         1 UNK         0.0806 
    115 H115       26.4058    0.7474   -9.5433 H         1 UNK         0.3000 
    116 H116       26.9821    0.8396  -12.3658 H         1 UNK         0.0850 
    117 H117       28.0460   -1.3747  -11.9026 H         1 UNK         0.0810 
    118 H118       26.4633   -1.2742  -11.1486 H         1 UNK         0.0810 
    119 H119       27.9193   -1.0907  -10.1715 H         1 UNK         0.0810 
    120 H120       28.6532    2.1498   -9.6943 H         1 UNK         0.3040 
    121 H121       30.6261    3.0053   -9.2507 H         1 UNK         0.0766 
    122 H122       31.0630    3.1783  -12.2798 H         1 UNK         0.0812 
    123 H123       31.9169    4.0976  -11.0500 H         1 UNK         0.0812 
    124 H124       30.2002    4.3666  -11.3034 H         1 UNK         0.0812 
    125 H125       30.5295    0.3348   -8.8917 H         1 UNK         0.3205 
    126 H126       32.6110   -1.1483  -10.1815 H         1 UNK         0.0754 
    127 H127       32.1147   -2.8352   -8.4168 H         1 UNK         0.0769 
    128 H128       30.6300   -2.2107   -9.1189 H         1 UNK         0.0769 
    129 H129       31.1556   -1.6488   -7.5335 H         1 UNK         0.0769 
    130 H130       32.5604    0.7966   -7.2103 H         1 UNK         0.2981 
    131 H131       35.4272    1.0151   -7.1934 H         1 UNK         0.0541 
    132 H132       33.2672    4.0048   -6.1201 H         1 UNK         0.3459 
    133 H133       32.8973    2.8118   -7.3334 H         1 UNK         0.3459 
    134 H134       35.7526    0.2159   -4.8105 H         1 UNK         0.0612 
    135 H135       35.4700   -1.0225   -5.9839 H         1 UNK         0.0612 
    136 H136       34.6690   -2.9627   -4.2425 H         1 UNK         0.0624 
    137 H137       33.8983   -2.7961   -5.8056 H         1 UNK         0.0624 
@<TRIPOS>BOND
     1    1    2 1    
     2    1   72 1    
     3    1   73 1    
     4    1   74 1    
     5    2    3 2    
     6    2    4 am   BACKBONE|DICT|INTERRES
     7    4    5 1    
     8    4   75 1    
     9    5    6 1    
    10    5   35 1    
    11    5   76 1    
    12    6    7 1    
    13    6   77 1    
    14    6   78 1    
    15    7    8 1    
    16    8    9 1    
    17    8   79 1    
    18    8   80 1    
    19    9   10 ar   
    20    9   14 ar   
    21   10   11 ar   
    22   10   81 1    
    23   11   12 ar   
    24   11   71 1    
    25   12   13 ar   
    26   12   82 1    
    27   13   14 ar   
    28   13   15 1    
    29   14   83 1    
    30   15   16 1    
    31   15   84 1    
    32   15   85 1    
    33   16   17 1    
    34   17   18 1    
    35   17   86 1    
    36   17   87 1    
    37   18   19 1    
    38   18   37 1    
    39   18   88 1    
    40   19   20 am   BACKBONE|DICT|INTERRES
    41   19   89 1    
    42   20   21 2    
    43   20   22 1    
    44   22   23 1    
    45   22   24 1    
    46   22   90 1    
    47   23   91 1    
    48   23   92 1    
    49   23   93 1    
    50   24   25 am   BACKBONE|DICT|INTERRES
    51   24   94 1    
    52   25   26 2    
    53   25   27 1    
    54   27   28 1    
    55   27   29 1    
    56   27   95 1    
    57   28   96 1    
    58   28   97 1    
    59   28   98 1    
    60   29   30 am   BACKBONE|DICT|INTERRES
    61   29   99 1    
    62   30   31 2    
    63   30   32 1    
    64   32   33 1    
    65   32   34 1    
    66   32  100 1    
    67   33  101 1    
    68   33  102 1    
    69   33  103 1    
    70   34   35 am   BACKBONE|DICT|INTERRES
    71   34  104 1    
    72   35   36 2    
    73   37   38 2    
    74   37   39 am   BACKBONE|DICT|INTERRES
    75   39   40 1    
    76   39  105 1    
    77   40   41 1    
    78   40   42 1    
    79   40  106 1    
    80   41  107 1    
    81   41  108 1    
    82   41  109 1    
    83   42   43 2    
    84   42   44 am   BACKBONE|DICT|INTERRES
    85   44   45 1    
    86   44  110 1    
    87   45   46 1    
    88   45   47 1    
    89   45  111 1    
    90   46  112 1    
    91   46  113 1    
    92   46  114 1    
    93   47   48 2    
    94   47   49 am   BACKBONE|DICT|INTERRES
    95   49   50 1    
    96   49  115 1    
    97   50   51 1    
    98   50   52 1    
    99   50  116 1    
   100   51  117 1    
   101   51  118 1    
   102   51  119 1    
   103   52   53 2    
   104   52   54 am   BACKBONE|DICT|INTERRES
   105   54   55 1    
   106   54  120 1    
   107   55   56 1    
   108   55   57 1    
   109   55  121 1    
   110   56  122 1    
   111   56  123 1    
   112   56  124 1    
   113   57   58 2    
   114   57   59 am   BACKBONE|DICT|INTERRES
   115   59   60 1    
   116   59  125 1    
   117   60   61 1    
   118   60   62 1    
   119   60  126 1    
   120   61  127 1    
   121   61  128 1    
   122   61  129 1    
   123   62   63 2    
   124   62   64 am   BACKBONE|DICT|INTERRES
   125   64   65 1    
   126   64  130 1    
   127   65   66 1    
   128   65   69 1    
   129   65  131 1    
   130   66   67 am   BACKBONE|DICT|INTERRES
   131   66   68 2    
   132   67  132 1    
   133   67  133 1    
   134   69   70 1    
   135   69  134 1    
   136   69  135 1    
   137   70   71 1    
   138   71  136 1    
   139   71  137 1    
@<TRIPOS>SUBSTRUCTURE
     1 UNK         1 GROUP             0       ****    0 ROOT    
