@<TRIPOS>MOLECULE
3R137
137   139    1
SMALL
USER_CHARGES


@<TRIPOS>ATOM
      1 CA         26.0866   -1.1572   -0.9989 C.3       0 UNK        -0.2020 
      2 C          26.6458   -2.1634   -1.9922 C.2       0 UNK         0.4855 
      3 O          26.7631   -1.8595   -3.1794 O.2       0 UNK        -0.5197 
      4 N          26.9857   -3.3691   -1.5216 N.am      1 UNK        -0.4892 
      5 CA         27.5072   -4.4633   -2.3448 C.3       1 UNK         0.0835 
      6 C6         27.9891   -5.6724   -1.5009 C.3       12 UNK        -0.0855 
      7 S7         29.0674   -5.2335   -0.0957 S.3       12 UNK        -0.2931 
      8 C8         30.7157   -5.1627   -0.8719 C.3       12 UNK         0.0378 
      9 C9         31.0420   -3.7984   -1.4730 C.ar      12 UNK        -0.0802 
     10 C10        31.6126   -3.7104   -2.7464 C.ar      12 UNK        -0.0944 
     11 C11        32.0020   -2.4724   -3.2701 C.ar      12 UNK        -0.0787 
     12 C12        31.8004   -1.3110   -2.5168 C.ar      12 UNK        -0.0862 
     13 C13        31.2176   -1.3832   -1.2484 C.ar      12 UNK        -0.0733 
     14 C14        30.8459   -2.6279   -0.7322 C.ar      12 UNK        -0.0832 
     15 C15        31.0197   -0.1288   -0.4116 C.3       12 UNK         0.0240 
     16 S16        29.4534    0.7082   -0.8115 S.3       12 UNK        -0.2522 
     17 C17        29.9774    1.9849   -2.0080 C.3       12 UNK        -0.0967 
     18 CA         29.3614    1.8145   -3.4231 C.3       5 UNK         0.0660 
     19 N          27.8927    1.7395   -3.3710 N.am      5 UNK        -0.4015 
     20 C          27.0862    1.2849   -4.3392 C.2       4 UNK         0.4946 
     21 O          27.4723    0.9492   -5.4628 O.2       4 UNK        -0.5353 
     22 CA         25.5896    1.2149   -4.0249 C.3       4 UNK         0.0277 
     23 CB         24.8940    2.5515   -4.3336 C.3       4 UNK        -0.1981 
     24 N          25.0347    0.1625   -4.8660 N.am      4 UNK        -0.4209 
     25 C          24.0338   -0.6630   -4.5489 C.2       3 UNK         0.4942 
     26 O          23.3656   -0.5803   -3.5178 O.2       3 UNK        -0.5208 
     27 CA         23.7457   -1.7833   -5.5528 C.3       3 UNK         0.0250 
     28 CB         23.6793   -1.2600   -7.0050 C.3       3 UNK        -0.1990 
     29 N          24.7501   -2.8412   -5.4162 N.am      3 UNK        -0.4232 
     30 C          24.6161   -4.0777   -5.9199 C.2       2 UNK         0.4993 
     31 O          23.6155   -4.4548   -6.5318 O.2       2 UNK        -0.5286 
     32 CA         25.7740   -5.0783   -5.7355 C.3       2 UNK         0.0209 
     33 CB         26.5520   -5.2584   -7.0498 C.3       2 UNK        -0.1931 
     34 N          26.7057   -4.7258   -4.6603 N.am      2 UNK        -0.4546 
     35 C          26.4362   -4.9115   -3.3617 C.2       1 UNK         0.5154 
     36 O          25.3824   -5.4031   -2.9493 O.2       1 UNK        -0.5181 
     37 C          29.8611    2.9170   -4.3915 C.2       5 UNK         0.5014 
     38 O          30.5717    3.8349   -3.9759 O.2       5 UNK        -0.5248 
     39 N          29.4636    2.8210   -5.6609 N.am      6 UNK        -0.4434 
     40 CA         29.7563    3.7425   -6.7496 C.3       6 UNK         0.0363 
     41 CB         28.8567    4.9924   -6.6323 C.3       6 UNK        -0.1936 
     42 C          29.5675    2.9957   -8.0784 C.2       6 UNK         0.5081 
     43 O          29.5223    1.7609   -8.0956 O.2       6 UNK        -0.5248 
     44 N          29.4465    3.7519   -9.1779 N.am      7 UNK        -0.4718 
     45 CA         29.2833    3.2615  -10.5529 C.3       7 UNK         0.0273 
     46 CB         29.1716    4.4614  -11.5065 C.3       7 UNK        -0.1935 
     47 C          28.1015    2.2969  -10.7665 C.2       7 UNK         0.5018 
     48 O          28.1800    1.4534  -11.6585 O.2       7 UNK        -0.5186 
     49 N          27.0669    2.3920   -9.9177 N.am      8 UNK        -0.4240 
     50 CA         25.9145    1.4860   -9.8677 C.3       8 UNK         0.0235 
     51 CB         24.9454    1.9614   -8.7721 C.3       8 UNK        -0.2000 
     52 C          26.2919    0.0098   -9.6389 C.2       8 UNK         0.4941 
     53 O          25.6542   -0.8678  -10.2206 O.2       8 UNK        -0.5273 
     54 N          27.3238   -0.2321   -8.8186 N.am      9 UNK        -0.4262 
     55 CA         27.8936   -1.5574   -8.5563 C.3       9 UNK         0.0264 
     56 CB         28.0934   -1.7073   -7.0388 C.3       9 UNK        -0.1955 
     57 C          29.2292   -1.7739   -9.2933 C.2       9 UNK         0.5031 
     58 O          29.8478   -2.8218   -9.1044 O.2       9 UNK        -0.5390 
     59 N          29.6655   -0.7816  -10.0868 N.am      10 UNK        -0.4204 
     60 CA         30.9956   -0.6404  -10.6955 C.3       10 UNK         0.0237 
     61 CB         31.2582   -1.7471  -11.7393 C.3       10 UNK        -0.1985 
     62 C          32.1213   -0.5142   -9.6450 C.2       10 UNK         0.4970 
     63 O          33.2464   -0.9511   -9.8938 O.2       10 UNK        -0.4914 
     64 N          31.7954    0.0924   -8.4973 N.am      11 UNK        -0.4285 
     65 CA         32.6836    0.3042   -7.3450 C.3       11 UNK         0.1007 
     66 C          33.3136    1.7269   -7.3065 C.2       11 UNK         0.5703 
     67 N          33.0833    2.5886   -8.2911 N.am      11 UNK        -0.7361 
     68 O          34.0458    2.0513   -6.3751 O.2       11 UNK        -0.4986 
     69 C69        31.9518   -0.0396   -6.0194 C.3       12 UNK        -0.0947 
     70 S70        31.5321   -1.8125   -5.9174 S.3       12 UNK        -0.2240 
     71 C71        32.6748   -2.4030   -4.6337 C.3       12 UNK         0.0194 
     72 H72        26.1571   -1.5159    0.0277 H         1 UNK         0.0906 
     73 H73        26.6341   -0.2188   -1.0660 H         1 UNK         0.0906 
     74 H74        25.0386   -0.9575   -1.2204 H         1 UNK         0.0906 
     75 H75        26.8736   -3.5813   -0.5407 H         1 UNK         0.3140 
     76 H76        28.3694   -4.0717   -2.8898 H         1 UNK         0.1085 
     77 H77        28.5030   -6.3972   -2.1351 H         1 UNK         0.0836 
     78 H78        27.1348   -6.2051   -1.0775 H         1 UNK         0.0836 
     79 H79        30.8044   -5.9545   -1.6172 H         1 UNK         0.0731 
     80 H80        31.4629   -5.3814   -0.1080 H         1 UNK         0.0731 
     81 H81        31.7818   -4.6107   -3.3214 H         1 UNK         0.1312 
     82 H82        32.1034   -0.3522   -2.9124 H         1 UNK         0.1406 
     83 H83        30.4145   -2.6883    0.2579 H         1 UNK         0.1631 
     84 H84        31.8670    0.5475   -0.5308 H         1 UNK         0.0717 
     85 H85        31.0032   -0.3916    0.6473 H         1 UNK         0.0717 
     86 H86        29.7005    2.9544   -1.5889 H         1 UNK         0.0934 
     87 H87        31.0666    1.9944   -2.0753 H         1 UNK         0.0934 
     88 H88        29.7192    0.8624   -3.8217 H         1 UNK         0.0739 
     89 H89        27.4819    2.0190   -2.4929 H         1 UNK         0.3093 
     90 H90        25.4569    0.9576   -2.9727 H         1 UNK         0.0818 
     91 H91        25.2942    3.3546   -3.7137 H         1 UNK         0.0819 
     92 H92        25.0281    2.8443   -5.3757 H         1 UNK         0.0819 
     93 H93        23.8231    2.4938   -4.1380 H         1 UNK         0.0819 
     94 H94        25.5923   -0.0184   -5.6916 H         1 UNK         0.3041 
     95 H95        22.7690   -2.1983   -5.2939 H         1 UNK         0.0784 
     96 H96        23.0342   -0.3834   -7.0784 H         1 UNK         0.0793 
     97 H97        24.6627   -0.9818   -7.3820 H         1 UNK         0.0793 
     98 H98        23.2718   -2.0113   -7.6814 H         1 UNK         0.0793 
     99 H99        25.5626   -2.6159   -4.8493 H         1 UNK         0.3024 
    100 H100       25.3185   -6.0408   -5.4894 H         1 UNK         0.1171 
    101 H101       27.0025   -4.3272   -7.3879 H         1 UNK         0.0786 
    102 H102       27.3448   -5.9994   -6.9462 H         1 UNK         0.0786 
    103 H103       25.8918   -5.6032   -7.8469 H         1 UNK         0.0786 
    104 H104       27.5759   -4.2891   -4.9290 H         1 UNK         0.2977 
    105 H105       28.8721    2.0279   -5.9148 H         1 UNK         0.3127 
    106 H106       30.8052    4.0392   -6.6877 H         1 UNK         0.0770 
    107 H107       27.8030    4.7424   -6.7634 H         1 UNK         0.0814 
    108 H108       29.1150    5.7480   -7.3745 H         1 UNK         0.0814 
    109 H109       28.9628    5.4681   -5.6573 H         1 UNK         0.0814 
    110 H110       29.4925    4.7550   -9.0690 H         1 UNK         0.2983 
    111 H111       30.1911    2.7107  -10.8063 H         1 UNK         0.0947 
    112 H112       29.0747    4.1307  -12.5419 H         1 UNK         0.0806 
    113 H113       30.0571    5.0951  -11.4546 H         1 UNK         0.0806 
    114 H114       28.3015    5.0786  -11.2792 H         1 UNK         0.0806 
    115 H115       27.1030    3.1182   -9.2178 H         1 UNK         0.3000 
    116 H116       25.4061    1.5502  -10.8320 H         1 UNK         0.0850 
    117 H117       25.4040    1.9249   -7.7827 H         1 UNK         0.0810 
    118 H118       24.0542    1.3333   -8.7422 H         1 UNK         0.0810 
    119 H119       24.6111    2.9834   -8.9512 H         1 UNK         0.0810 
    120 H120       27.8041    0.5501   -8.3841 H         1 UNK         0.3040 
    121 H121       27.2105   -2.3405   -8.8908 H         1 UNK         0.0766 
    122 H122       28.7671   -0.9423   -6.6527 H         1 UNK         0.0812 
    123 H123       27.1506   -1.6251   -6.5003 H         1 UNK         0.0812 
    124 H124       28.5328   -2.6718   -6.7838 H         1 UNK         0.0812 
    125 H125       29.0425    0.0036  -10.2276 H         1 UNK         0.3205 
    126 H126       30.9794    0.3101  -11.2301 H         1 UNK         0.0754 
    127 H127       32.1733   -1.5477  -12.2981 H         1 UNK         0.0769 
    128 H128       30.4454   -1.8099  -12.4628 H         1 UNK         0.0769 
    129 H129       31.3707   -2.7268  -11.2741 H         1 UNK         0.0769 
    130 H130       30.8605    0.4766   -8.3899 H         1 UNK         0.2981 
    131 H131       33.5350   -0.3736   -7.4280 H         1 UNK         0.0541 
    132 H132       33.5165    3.4977   -8.2597 H         1 UNK         0.3459 
    133 H133       32.5148    2.3242   -9.0779 H         1 UNK         0.3459 
    134 H134       31.0254    0.5288   -5.9425 H         1 UNK         0.0612 
    135 H135       32.5515    0.2389   -5.1524 H         1 UNK         0.0612 
    136 H136       33.0317   -3.3914   -4.9269 H         1 UNK         0.0624 
    137 H137       33.5614   -1.7694   -4.5862 H         1 UNK         0.0624 
@<TRIPOS>BOND
     1    1    2 1    
     2    1   72 1    
     3    1   73 1    
     4    1   74 1    
     5    2    3 2    
     6    2    4 am   BACKBONE|DICT|INTERRES
     7    4    5 1    
     8    4   75 1    
     9    5    6 1    
    10    5   35 1    
    11    5   76 1    
    12    6    7 1    
    13    6   77 1    
    14    6   78 1    
    15    7    8 1    
    16    8    9 1    
    17    8   79 1    
    18    8   80 1    
    19    9   10 ar   
    20    9   14 ar   
    21   10   11 ar   
    22   10   81 1    
    23   11   12 ar   
    24   11   71 1    
    25   12   13 ar   
    26   12   82 1    
    27   13   14 ar   
    28   13   15 1    
    29   14   83 1    
    30   15   16 1    
    31   15   84 1    
    32   15   85 1    
    33   16   17 1    
    34   17   18 1    
    35   17   86 1    
    36   17   87 1    
    37   18   19 1    
    38   18   37 1    
    39   18   88 1    
    40   19   20 am   BACKBONE|DICT|INTERRES
    41   19   89 1    
    42   20   21 2    
    43   20   22 1    
    44   22   23 1    
    45   22   24 1    
    46   22   90 1    
    47   23   91 1    
    48   23   92 1    
    49   23   93 1    
    50   24   25 am   BACKBONE|DICT|INTERRES
    51   24   94 1    
    52   25   26 2    
    53   25   27 1    
    54   27   28 1    
    55   27   29 1    
    56   27   95 1    
    57   28   96 1    
    58   28   97 1    
    59   28   98 1    
    60   29   30 am   BACKBONE|DICT|INTERRES
    61   29   99 1    
    62   30   31 2    
    63   30   32 1    
    64   32   33 1    
    65   32   34 1    
    66   32  100 1    
    67   33  101 1    
    68   33  102 1    
    69   33  103 1    
    70   34   35 am   BACKBONE|DICT|INTERRES
    71   34  104 1    
    72   35   36 2    
    73   37   38 2    
    74   37   39 am   BACKBONE|DICT|INTERRES
    75   39   40 1    
    76   39  105 1    
    77   40   41 1    
    78   40   42 1    
    79   40  106 1    
    80   41  107 1    
    81   41  108 1    
    82   41  109 1    
    83   42   43 2    
    84   42   44 am   BACKBONE|DICT|INTERRES
    85   44   45 1    
    86   44  110 1    
    87   45   46 1    
    88   45   47 1    
    89   45  111 1    
    90   46  112 1    
    91   46  113 1    
    92   46  114 1    
    93   47   48 2    
    94   47   49 am   BACKBONE|DICT|INTERRES
    95   49   50 1    
    96   49  115 1    
    97   50   51 1    
    98   50   52 1    
    99   50  116 1    
   100   51  117 1    
   101   51  118 1    
   102   51  119 1    
   103   52   53 2    
   104   52   54 am   BACKBONE|DICT|INTERRES
   105   54   55 1    
   106   54  120 1    
   107   55   56 1    
   108   55   57 1    
   109   55  121 1    
   110   56  122 1    
   111   56  123 1    
   112   56  124 1    
   113   57   58 2    
   114   57   59 am   BACKBONE|DICT|INTERRES
   115   59   60 1    
   116   59  125 1    
   117   60   61 1    
   118   60   62 1    
   119   60  126 1    
   120   61  127 1    
   121   61  128 1    
   122   61  129 1    
   123   62   63 2    
   124   62   64 am   BACKBONE|DICT|INTERRES
   125   64   65 1    
   126   64  130 1    
   127   65   66 1    
   128   65   69 1    
   129   65  131 1    
   130   66   67 am   BACKBONE|DICT|INTERRES
   131   66   68 2    
   132   67  132 1    
   133   67  133 1    
   134   69   70 1    
   135   69  134 1    
   136   69  135 1    
   137   70   71 1    
   138   71  136 1    
   139   71  137 1    
@<TRIPOS>SUBSTRUCTURE
     1 UNK         1 GROUP             0       ****    0 ROOT    
