@<TRIPOS>MOLECULE
3R137
137   139    1
SMALL
USER_CHARGES


@<TRIPOS>ATOM
      1 CA         28.2371   -1.2002    2.7033 C.3       0 UNK        -0.2020 
      2 C          28.4604   -2.3646    1.7500 C.2       0 UNK         0.4855 
      3 O          28.4446   -3.5166    2.1836 O.2       0 UNK        -0.5197 
      4 N          28.6566   -2.0671    0.4569 N.am      1 UNK        -0.4892 
      5 CA         28.9324   -3.0204   -0.6340 C.3       1 UNK         0.0835 
      6 C6         30.2684   -3.8011   -0.4572 C.3       12 UNK        -0.0855 
      7 S7         31.7091   -2.6899   -0.2798 S.3       12 UNK        -0.2931 
      8 C8         32.5006   -2.8230   -1.9178 C.3       12 UNK         0.0378 
      9 C9         31.5576   -2.4408   -3.0512 C.ar      12 UNK        -0.0802 
     10 C10        31.2025   -3.3846   -4.0196 C.ar      12 UNK        -0.0944 
     11 C11        30.3274   -3.0462   -5.0561 C.ar      12 UNK        -0.0787 
     12 C12        29.7957   -1.7551   -5.1113 C.ar      12 UNK        -0.0862 
     13 C13        30.1419   -0.8041   -4.1461 C.ar      12 UNK        -0.0733 
     14 C14        31.0330   -1.1473   -3.1265 C.ar      12 UNK        -0.0832 
     15 C15        29.5706    0.6000   -4.2236 C.3       12 UNK         0.0240 
     16 S16        27.8387    0.6479   -3.6730 S.3       12 UNK        -0.2522 
     17 C17        27.2977    2.1408   -4.5662 C.3       12 UNK        -0.0967 
     18 CA         26.8089    1.7769   -5.9881 C.3       5 UNK         0.0660 
     19 N          25.5427    1.0339   -5.9644 N.am      5 UNK        -0.4015 
     20 C          24.9076    0.5239   -7.0271 C.2       4 UNK         0.4946 
     21 O          25.2841    0.6897   -8.1887 O.2       4 UNK        -0.5353 
     22 CA         23.6623   -0.3329   -6.7365 C.3       4 UNK         0.0277 
     23 CB         22.8239   -0.5866   -8.0037 C.3       4 UNK        -0.1981 
     24 N          24.0402   -1.6194   -6.1472 N.am      4 UNK        -0.4209 
     25 C          24.4539   -1.7946   -4.8861 C.2       3 UNK         0.4942 
     26 O          24.5021   -0.8873   -4.0492 O.2       3 UNK        -0.5208 
     27 CA         24.9212   -3.2063   -4.5149 C.3       3 UNK         0.0250 
     28 CB         26.2551   -3.5446   -5.2053 C.3       3 UNK        -0.1990 
     29 N          25.1038   -3.2781   -3.0697 N.am      3 UNK        -0.4232 
     30 C          24.9159   -4.3594   -2.3064 C.2       2 UNK         0.4993 
     31 O          24.5386   -5.4499   -2.7409 O.2       2 UNK        -0.5286 
     32 CA         25.2229   -4.1779   -0.8068 C.3       2 UNK         0.0209 
     33 CB         25.1292   -5.4930   -0.0025 C.3       2 UNK        -0.1931 
     34 N          26.5168   -3.5157   -0.5807 N.am      2 UNK        -0.4546 
     35 C          27.7349   -3.9497   -0.9503 C.2       1 UNK         0.5154 
     36 O          27.9312   -5.0184   -1.5316 O.2       1 UNK        -0.5181 
     37 C          26.8156    3.0081   -6.9139 C.2       5 UNK         0.5014 
     38 O          27.8607    3.3024   -7.4954 O.2       5 UNK        -0.5248 
     39 N          25.6602    3.6665   -7.0817 N.am      6 UNK        -0.4434 
     40 CA         25.4658    4.7760   -8.0200 C.3       6 UNK         0.0363 
     41 CB         24.0821    5.4022   -7.7824 C.3       6 UNK        -0.1936 
     42 C          25.6256    4.3753   -9.5004 C.2       6 UNK         0.5081 
     43 O          25.9948    5.2253  -10.3112 O.2       6 UNK        -0.5248 
     44 N          25.3497    3.1052   -9.8267 N.am      7 UNK        -0.4718 
     45 CA         25.5256    2.5321  -11.1610 C.3       7 UNK         0.0273 
     46 CB         24.3440    1.5982  -11.4730 C.3       7 UNK        -0.1935 
     47 C          26.8559    1.7722  -11.2680 C.2       7 UNK         0.5018 
     48 O          27.5321    1.8876  -12.2906 O.2       7 UNK        -0.5186 
     49 N          27.2034    1.0047  -10.2236 N.am      8 UNK        -0.4240 
     50 CA         28.4026    0.1638  -10.1700 C.3       8 UNK         0.0235 
     51 CB         28.2890   -0.8239   -8.9970 C.3       8 UNK        -0.2000 
     52 C          29.7182    0.9564  -10.0847 C.2       8 UNK         0.4941 
     53 O          30.7242    0.4881  -10.6177 O.2       8 UNK        -0.5273 
     54 N          29.6917    2.1240   -9.4200 N.am      9 UNK        -0.4262 
     55 CA         30.8111    3.0574   -9.2243 C.3       9 UNK         0.0264 
     56 CB         31.2216    3.7026  -10.5657 C.3       9 UNK        -0.1955 
     57 C          32.0040    2.4464   -8.4564 C.2       9 UNK         0.5031 
     58 O          33.1522    2.7891   -8.7448 O.2       9 UNK        -0.5390 
     59 N          31.6860    1.5789   -7.4823 N.am      10 UNK        -0.4204 
     60 CA         32.5682    0.7655   -6.6342 C.3       10 UNK         0.0237 
     61 CB         33.6040    1.6150   -5.8709 C.3       10 UNK        -0.1985 
     62 C          33.2252   -0.3875   -7.4116 C.2       10 UNK         0.4970 
     63 O          33.9996   -0.1504   -8.3398 O.2       10 UNK        -0.4914 
     64 N          32.9110   -1.6233   -7.0031 N.am      11 UNK        -0.4285 
     65 CA         33.4082   -2.8595   -7.6317 C.3       11 UNK         0.1007 
     66 C          34.9018   -3.1877   -7.3383 C.2       11 UNK         0.5703 
     67 N          35.5582   -2.5256   -6.3926 N.am      11 UNK        -0.7361 
     68 O          35.4774   -4.0578   -7.9877 O.2       11 UNK        -0.4986 
     69 C69        32.5047   -4.0809   -7.3141 C.3       12 UNK        -0.0947 
     70 S70        30.7457   -3.7901   -7.7084 S.3       12 UNK        -0.2240 
     71 C71        29.9391   -4.0824   -6.1023 C.3       12 UNK         0.0194 
     72 H72        29.0059   -1.1967    3.4756 H         1 UNK         0.0906 
     73 H73        28.2687   -0.2390    2.1905 H         1 UNK         0.0906 
     74 H74        27.2664   -1.2935    3.1896 H         1 UNK         0.0906 
     75 H75        28.6599   -1.0952    0.1779 H         1 UNK         0.3140 
     76 H76        29.0365   -2.4112   -1.5329 H         1 UNK         0.1085 
     77 H77        30.4450   -4.4671   -1.3036 H         1 UNK         0.0836 
     78 H78        30.2218   -4.4474    0.4204 H         1 UNK         0.0836 
     79 H79        32.8757   -3.8394   -2.0477 H         1 UNK         0.0731 
     80 H80        33.3731   -2.1688   -1.9440 H         1 UNK         0.0731 
     81 H81        31.6039   -4.3874   -3.9641 H         1 UNK         0.1312 
     82 H82        29.1085   -1.4927   -5.9040 H         1 UNK         0.1406 
     83 H83        31.3057   -0.4165   -2.3767 H         1 UNK         0.1631 
     84 H84        29.6410    0.9514   -5.2530 H         1 UNK         0.0717 
     85 H85        30.1575    1.2962   -3.6223 H         1 UNK         0.0717 
     86 H86        26.5056    2.6306   -3.9967 H         1 UNK         0.0934 
     87 H87        28.1290    2.8493   -4.5934 H         1 UNK         0.0934 
     88 H88        27.5392    1.0962   -6.4249 H         1 UNK         0.0739 
     89 H89        25.2043    0.7574   -5.0480 H         1 UNK         0.3093 
     90 H90        23.0389    0.2147   -6.0262 H         1 UNK         0.0818 
     91 H91        23.3800   -1.1522   -8.7527 H         1 UNK         0.0819 
     92 H92        21.9133   -1.1397   -7.7732 H         1 UNK         0.0819 
     93 H93        22.5219    0.3541   -8.4663 H         1 UNK         0.0819 
     94 H94        24.0568   -2.4097   -6.7760 H         1 UNK         0.3041 
     95 H95        24.1499   -3.9135   -4.8276 H         1 UNK         0.0784 
     96 H96        26.1625   -3.5225   -6.2916 H         1 UNK         0.0793 
     97 H97        27.0361   -2.8358   -4.9270 H         1 UNK         0.0793 
     98 H98        26.6001   -4.5420   -4.9312 H         1 UNK         0.0793 
     99 H99        25.3415   -2.3936   -2.6383 H         1 UNK         0.3024 
    100 H100       24.4547   -3.5054   -0.4207 H         1 UNK         0.1171 
    101 H101       25.3343   -5.3260    1.0550 H         1 UNK         0.0786 
    102 H102       24.1298   -5.9239   -0.0747 H         1 UNK         0.0786 
    103 H103       25.8322   -6.2435   -0.3653 H         1 UNK         0.0786 
    104 H104       26.4775   -2.6243   -0.1062 H         1 UNK         0.2977 
    105 H105       24.8491    3.3544   -6.5678 H         1 UNK         0.3127 
    106 H106       26.2251    5.5309   -7.8042 H         1 UNK         0.0770 
    107 H107       23.2784    4.6876   -7.9644 H         1 UNK         0.0814 
    108 H108       23.9194    6.2510   -8.4482 H         1 UNK         0.0814 
    109 H109       23.9818    5.7709   -6.7614 H         1 UNK         0.0814 
    110 H110       25.1008    2.4521   -9.0910 H         1 UNK         0.2983 
    111 H111       25.5335    3.3251  -11.9124 H         1 UNK         0.0947 
    112 H112       24.2751    0.7750  -10.7606 H         1 UNK         0.0806 
    113 H113       24.4448    1.1614  -12.4675 H         1 UNK         0.0806 
    114 H114       23.3975    2.1384  -11.4510 H         1 UNK         0.0806 
    115 H115       26.5516    0.9268   -9.4443 H         1 UNK         0.3000 
    116 H116       28.4358   -0.4178  -11.0940 H         1 UNK         0.0850 
    117 H117       27.3907   -1.4364   -9.0778 H         1 UNK         0.0810 
    118 H118       28.2589   -0.3123   -8.0372 H         1 UNK         0.0810 
    119 H119       29.1428   -1.5022   -8.9774 H         1 UNK         0.0810 
    120 H120       28.8207    2.4148   -8.9838 H         1 UNK         0.3040 
    121 H121       30.4258    3.8546   -8.5866 H         1 UNK         0.0766 
    122 H122       31.9473    4.5018  -10.4106 H         1 UNK         0.0812 
    123 H123       30.3625    4.1405  -11.0739 H         1 UNK         0.0812 
    124 H124       31.6767    2.9768  -11.2404 H         1 UNK         0.0812 
    125 H125       30.7006    1.3879   -7.3787 H         1 UNK         0.3205 
    126 H126       31.9188    0.3244   -5.8812 H         1 UNK         0.0754 
    127 H127       34.1440    1.0056   -5.1453 H         1 UNK         0.0769 
    128 H128       33.1253    2.4257   -5.3216 H         1 UNK         0.0769 
    129 H129       34.3474    2.0529   -6.5375 H         1 UNK         0.0769 
    130 H130       32.2724   -1.7535   -6.2316 H         1 UNK         0.2981 
    131 H131       33.3543   -2.7042   -8.7111 H         1 UNK         0.0541 
    132 H132       35.0979   -1.8086   -5.8566 H         1 UNK         0.3459 
    133 H133       36.5257   -2.7462   -6.2173 H         1 UNK         0.3459 
    134 H134       32.8254   -4.9479   -7.8946 H         1 UNK         0.0612 
    135 H135       32.6086   -4.3693   -6.2677 H         1 UNK         0.0612 
    136 H136       28.8597   -4.0601   -6.2508 H         1 UNK         0.0624 
    137 H137       30.1774   -5.0903   -5.7590 H         1 UNK         0.0624 
@<TRIPOS>BOND
     1    1    2 1    
     2    1   72 1    
     3    1   73 1    
     4    1   74 1    
     5    2    3 2    
     6    2    4 am   BACKBONE|DICT|INTERRES
     7    4    5 1    
     8    4   75 1    
     9    5    6 1    
    10    5   35 1    
    11    5   76 1    
    12    6    7 1    
    13    6   77 1    
    14    6   78 1    
    15    7    8 1    
    16    8    9 1    
    17    8   79 1    
    18    8   80 1    
    19    9   10 ar   
    20    9   14 ar   
    21   10   11 ar   
    22   10   81 1    
    23   11   12 ar   
    24   11   71 1    
    25   12   13 ar   
    26   12   82 1    
    27   13   14 ar   
    28   13   15 1    
    29   14   83 1    
    30   15   16 1    
    31   15   84 1    
    32   15   85 1    
    33   16   17 1    
    34   17   18 1    
    35   17   86 1    
    36   17   87 1    
    37   18   19 1    
    38   18   37 1    
    39   18   88 1    
    40   19   20 am   BACKBONE|DICT|INTERRES
    41   19   89 1    
    42   20   21 2    
    43   20   22 1    
    44   22   23 1    
    45   22   24 1    
    46   22   90 1    
    47   23   91 1    
    48   23   92 1    
    49   23   93 1    
    50   24   25 am   BACKBONE|DICT|INTERRES
    51   24   94 1    
    52   25   26 2    
    53   25   27 1    
    54   27   28 1    
    55   27   29 1    
    56   27   95 1    
    57   28   96 1    
    58   28   97 1    
    59   28   98 1    
    60   29   30 am   BACKBONE|DICT|INTERRES
    61   29   99 1    
    62   30   31 2    
    63   30   32 1    
    64   32   33 1    
    65   32   34 1    
    66   32  100 1    
    67   33  101 1    
    68   33  102 1    
    69   33  103 1    
    70   34   35 am   BACKBONE|DICT|INTERRES
    71   34  104 1    
    72   35   36 2    
    73   37   38 2    
    74   37   39 am   BACKBONE|DICT|INTERRES
    75   39   40 1    
    76   39  105 1    
    77   40   41 1    
    78   40   42 1    
    79   40  106 1    
    80   41  107 1    
    81   41  108 1    
    82   41  109 1    
    83   42   43 2    
    84   42   44 am   BACKBONE|DICT|INTERRES
    85   44   45 1    
    86   44  110 1    
    87   45   46 1    
    88   45   47 1    
    89   45  111 1    
    90   46  112 1    
    91   46  113 1    
    92   46  114 1    
    93   47   48 2    
    94   47   49 am   BACKBONE|DICT|INTERRES
    95   49   50 1    
    96   49  115 1    
    97   50   51 1    
    98   50   52 1    
    99   50  116 1    
   100   51  117 1    
   101   51  118 1    
   102   51  119 1    
   103   52   53 2    
   104   52   54 am   BACKBONE|DICT|INTERRES
   105   54   55 1    
   106   54  120 1    
   107   55   56 1    
   108   55   57 1    
   109   55  121 1    
   110   56  122 1    
   111   56  123 1    
   112   56  124 1    
   113   57   58 2    
   114   57   59 am   BACKBONE|DICT|INTERRES
   115   59   60 1    
   116   59  125 1    
   117   60   61 1    
   118   60   62 1    
   119   60  126 1    
   120   61  127 1    
   121   61  128 1    
   122   61  129 1    
   123   62   63 2    
   124   62   64 am   BACKBONE|DICT|INTERRES
   125   64   65 1    
   126   64  130 1    
   127   65   66 1    
   128   65   69 1    
   129   65  131 1    
   130   66   67 am   BACKBONE|DICT|INTERRES
   131   66   68 2    
   132   67  132 1    
   133   67  133 1    
   134   69   70 1    
   135   69  134 1    
   136   69  135 1    
   137   70   71 1    
   138   71  136 1    
   139   71  137 1    
@<TRIPOS>SUBSTRUCTURE
     1 UNK         1 GROUP             0       ****    0 ROOT    
