@<TRIPOS>MOLECULE
3R137
137   139    1
SMALL
USER_CHARGES


@<TRIPOS>ATOM
      1 CA         29.5577    0.1702    1.0916 C.3       0 UNK        -0.2020 
      2 C          28.7699   -1.0922    0.7733 C.2       0 UNK         0.4855 
      3 O          28.1124   -1.6374    1.6608 O.2       0 UNK        -0.5197 
      4 N          28.8389   -1.5531   -0.4837 N.am      1 UNK        -0.4892 
      5 CA         28.1491   -2.7349   -1.0248 C.3       1 UNK         0.0835 
      6 C6         28.6194   -4.0793   -0.3856 C.3       12 UNK        -0.0855 
      7 S7         30.4379   -4.2925   -0.3518 S.3       12 UNK        -0.2931 
      8 C8         30.7383   -5.4990   -1.6836 C.3       12 UNK         0.0378 
      9 C9         30.6923   -4.8395   -3.0529 C.ar      12 UNK        -0.0802 
     10 C10        31.8532   -4.2972   -3.6174 C.ar      12 UNK        -0.0944 
     11 C11        31.8068   -3.6738   -4.8689 C.ar      12 UNK        -0.0787 
     12 C12        30.5909   -3.5928   -5.5501 C.ar      12 UNK        -0.0862 
     13 C13        29.4226   -4.1033   -4.9823 C.ar      12 UNK        -0.0733 
     14 C14        29.4834   -4.7537   -3.7482 C.ar      12 UNK        -0.0832 
     15 C15        28.0848   -3.9019   -5.6722 C.3       12 UNK         0.0240 
     16 S16        27.1172   -2.6101   -4.8310 S.3       12 UNK        -0.2522 
     17 C17        28.0476   -1.0893   -5.2337 C.3       12 UNK        -0.0967 
     18 CA         27.3857   -0.3044   -6.3879 C.3       5 UNK         0.0660 
     19 N          25.9995    0.0497   -6.0762 N.am      5 UNK        -0.4015 
     20 C          25.0973    0.5801   -6.9085 C.2       4 UNK         0.4946 
     21 O          25.3801    0.9759   -8.0415 O.2       4 UNK        -0.5353 
     22 CA         23.6446    0.6740   -6.3861 C.3       4 UNK         0.0277 
     23 CB         22.6434    0.9858   -7.5141 C.3       4 UNK        -0.1981 
     24 N          23.2059   -0.5395   -5.6765 N.am      4 UNK        -0.4209 
     25 C          23.6044   -0.9103   -4.4511 C.2       3 UNK         0.4942 
     26 O          24.3644   -0.2248   -3.7617 O.2       3 UNK        -0.5208 
     27 CA         23.1335   -2.2783   -3.9327 C.3       3 UNK         0.0250 
     28 CB         23.3539   -3.4047   -4.9679 C.3       3 UNK        -0.1990 
     29 N          23.8484   -2.5637   -2.6870 N.am      3 UNK        -0.4232 
     30 C          23.5410   -3.4998   -1.7848 C.2       2 UNK         0.4993 
     31 O          22.6245   -4.3104   -1.9364 O.2       2 UNK        -0.5286 
     32 CA         24.3830   -3.5273   -0.4908 C.3       2 UNK         0.0209 
     33 CB         23.9972   -4.6935    0.4402 C.3       2 UNK        -0.1931 
     34 N          25.8314   -3.5815   -0.7260 N.am      2 UNK        -0.4546 
     35 C          26.6112   -2.5263   -1.0025 C.2       1 UNK         0.5154 
     36 O          26.1499   -1.4054   -1.2315 O.2       1 UNK        -0.5181 
     37 C          28.2411    0.9054   -6.8021 C.2       5 UNK         0.5014 
     38 O          29.1372    0.7482   -7.6321 O.2       5 UNK        -0.5248 
     39 N          27.9197    2.0954   -6.2755 N.am      6 UNK        -0.4434 
     40 CA         28.5346    3.3714   -6.6512 C.3       6 UNK         0.0363 
     41 CB         28.0231    4.4748   -5.7116 C.3       6 UNK        -0.1936 
     42 C          28.2991    3.7674   -8.1223 C.2       6 UNK         0.5081 
     43 O          29.1103    4.5104   -8.6735 O.2       6 UNK        -0.5248 
     44 N          27.2142    3.2665   -8.7286 N.am      7 UNK        -0.4718 
     45 CA         26.9027    3.4412  -10.1462 C.3       7 UNK         0.0273 
     46 CB         25.4083    3.7708  -10.3020 C.3       7 UNK        -0.1935 
     47 C          27.2628    2.1822  -10.9481 C.2       7 UNK         0.5018 
     48 O          27.8359    2.3037  -12.0310 O.2       7 UNK        -0.5186 
     49 N          26.9060    1.0024  -10.4184 N.am      8 UNK        -0.4240 
     50 CA         27.0509   -0.2880  -11.0962 C.3       8 UNK         0.0235 
     51 CB         26.2002   -1.3452  -10.3730 C.3       8 UNK        -0.2000 
     52 C          28.5049   -0.7683  -11.2386 C.2       8 UNK         0.4941 
     53 O          28.8294   -1.3740  -12.2612 O.2       8 UNK        -0.5273 
     54 N          29.3411   -0.5104  -10.2246 N.am      9 UNK        -0.4262 
     55 CA         30.7509   -0.9098  -10.1874 C.3       9 UNK         0.0264 
     56 CB         30.9865   -1.8513   -8.9942 C.3       9 UNK        -0.1955 
     57 C          31.6795    0.3070  -10.0932 C.2       9 UNK         0.5031 
     58 O          32.7125    0.3215  -10.7635 O.2       9 UNK        -0.5390 
     59 N          31.3058    1.2890   -9.2574 N.am      10 UNK        -0.4204 
     60 CA         32.0563    2.5076   -8.9262 C.3       10 UNK         0.0237 
     61 CB         32.1834    3.4335  -10.1549 C.3       10 UNK        -0.1985 
     62 C          33.4073    2.2147   -8.2404 C.2       10 UNK         0.4970 
     63 O          34.3797    2.9405   -8.4554 O.2       10 UNK        -0.4914 
     64 N          33.4386    1.1540   -7.4226 N.am      11 UNK        -0.4285 
     65 CA         34.6126    0.6961   -6.6635 C.3       11 UNK         0.1007 
     66 C          34.9846    1.5646   -5.4248 C.2       11 UNK         0.5703 
     67 N          34.1610    2.5185   -5.0057 N.am      11 UNK        -0.7361 
     68 O          36.0511    1.3783   -4.8433 O.2       11 UNK        -0.4986 
     69 C69        34.5064   -0.8140   -6.3175 C.3       12 UNK        -0.0947 
     70 S70        33.0157   -1.2471   -5.3576 S.3       12 UNK        -0.2240 
     71 C71        33.0538   -3.0611   -5.4863 C.3       12 UNK         0.0194 
     72 H72        30.1016    0.5431    0.2238 H         1 UNK         0.0906 
     73 H73        28.8846    0.9561    1.4332 H         1 UNK         0.0906 
     74 H74        30.2796   -0.0285    1.8834 H         1 UNK         0.0906 
     75 H75        29.3846   -1.0384   -1.1600 H         1 UNK         0.3140 
     76 H76        28.4165   -2.7646   -2.0811 H         1 UNK         0.1085 
     77 H77        28.2699   -4.1488    0.6462 H         1 UNK         0.0836 
     78 H78        28.1805   -4.9303   -0.9078 H         1 UNK         0.0836 
     79 H79        31.7187   -5.9522   -1.5285 H         1 UNK         0.0731 
     80 H80        30.0172   -6.3156   -1.6219 H         1 UNK         0.0731 
     81 H81        32.7885   -4.3504   -3.0769 H         1 UNK         0.1312 
     82 H82        30.5492   -3.0941   -6.5065 H         1 UNK         0.1406 
     83 H83        28.5787   -5.1553   -3.3131 H         1 UNK         0.1631 
     84 H84        27.5213   -4.8359   -5.6576 H         1 UNK         0.0717 
     85 H85        28.2162   -3.6352   -6.7222 H         1 UNK         0.0717 
     86 H86        29.0804   -1.3374   -5.4792 H         1 UNK         0.0934 
     87 H87        28.0953   -0.4765   -4.3313 H         1 UNK         0.0934 
     88 H88        27.3531   -0.9644   -7.2556 H         1 UNK         0.0739 
     89 H89        25.6707   -0.2076   -5.1493 H         1 UNK         0.3093 
     90 H90        23.6198    1.5086   -5.6823 H         1 UNK         0.0818 
     91 H91        21.6289    1.0903   -7.1290 H         1 UNK         0.0819 
     92 H92        22.8941    1.9229   -8.0135 H         1 UNK         0.0819 
     93 H93        22.6373    0.2040   -8.2747 H         1 UNK         0.0819 
     94 H94        22.6060   -1.1647   -6.1954 H         1 UNK         0.3041 
     95 H95        22.0683   -2.1965   -3.7081 H         1 UNK         0.0784 
     96 H96        22.7690   -3.2385   -5.8727 H         1 UNK         0.0793 
     97 H97        24.3988   -3.4836   -5.2649 H         1 UNK         0.0793 
     98 H98        23.0498   -4.3758   -4.5782 H         1 UNK         0.0793 
     99 H99        24.5935   -1.9029   -2.4719 H         1 UNK         0.3024 
    100 H100       24.1547   -2.6002    0.0409 H         1 UNK         0.1171 
    101 H101       24.5557   -4.6565    1.3759 H         1 UNK         0.0786 
    102 H102       24.1849   -5.6616   -0.0259 H         1 UNK         0.0786 
    103 H103       22.9382   -4.6555    0.6994 H         1 UNK         0.0786 
    104 H104       26.2662   -4.4819   -0.5892 H         1 UNK         0.2977 
    105 H105       27.1646    2.1335   -5.6062 H         1 UNK         0.3127 
    106 H106       29.6127    3.2737   -6.5085 H         1 UNK         0.0770 
    107 H107       26.9435    4.6070   -5.7935 H         1 UNK         0.0814 
    108 H108       28.4869    5.4336   -5.9481 H         1 UNK         0.0814 
    109 H109       28.2583    4.2523   -4.6707 H         1 UNK         0.0814 
    110 H110       26.6094    2.6386   -8.2113 H         1 UNK         0.2983 
    111 H111       27.4747    4.2741  -10.5616 H         1 UNK         0.0947 
    112 H112       25.1459    3.9044  -11.3523 H         1 UNK         0.0806 
    113 H113       25.1529    4.6956   -9.7845 H         1 UNK         0.0806 
    114 H114       24.7717    2.9793   -9.9043 H         1 UNK         0.0806 
    115 H115       26.3927    0.9982   -9.5384 H         1 UNK         0.3000 
    116 H116       26.6494   -0.1732  -12.1056 H         1 UNK         0.0850 
    117 H117       26.2413   -2.3022  -10.8949 H         1 UNK         0.0810 
    118 H118       25.1527   -1.0468  -10.3252 H         1 UNK         0.0810 
    119 H119       26.5447   -1.5159   -9.3539 H         1 UNK         0.0810 
    120 H120       28.9960    0.0038   -9.4207 H         1 UNK         0.3040 
    121 H121       31.0207   -1.4501  -11.0972 H         1 UNK         0.0766 
    122 H122       32.0274   -2.1750   -8.9505 H         1 UNK         0.0812 
    123 H123       30.7570   -1.3660   -8.0455 H         1 UNK         0.0812 
    124 H124       30.3706   -2.7473   -9.0715 H         1 UNK         0.0812 
    125 H125       30.4604    1.1413   -8.7052 H         1 UNK         0.3205 
    126 H126       31.4580    3.0364   -8.1840 H         1 UNK         0.0754 
    127 H127       32.6089    4.3979   -9.8751 H         1 UNK         0.0769 
    128 H128       31.2083    3.6300  -10.6016 H         1 UNK         0.0769 
    129 H129       32.8263    3.0047  -10.9240 H         1 UNK         0.0769 
    130 H130       32.5948    0.6194   -7.2814 H         1 UNK         0.2981 
    131 H131       35.4693    0.7932   -7.3332 H         1 UNK         0.0541 
    132 H132       33.2843    2.6786   -5.4731 H         1 UNK         0.3459 
    133 H133       34.4188    3.0764   -4.2073 H         1 UNK         0.3459 
    134 H134       35.3885   -1.1528   -5.7710 H         1 UNK         0.0612 
    135 H135       34.4928   -1.3904   -7.2439 H         1 UNK         0.0612 
    136 H136       33.1194   -3.3516   -6.5360 H         1 UNK         0.0624 
    137 H137       33.9538   -3.4389   -4.9989 H         1 UNK         0.0624 
@<TRIPOS>BOND
     1    1    2 1    
     2    1   72 1    
     3    1   73 1    
     4    1   74 1    
     5    2    3 2    
     6    2    4 am   BACKBONE|DICT|INTERRES
     7    4    5 1    
     8    4   75 1    
     9    5    6 1    
    10    5   35 1    
    11    5   76 1    
    12    6    7 1    
    13    6   77 1    
    14    6   78 1    
    15    7    8 1    
    16    8    9 1    
    17    8   79 1    
    18    8   80 1    
    19    9   10 ar   
    20    9   14 ar   
    21   10   11 ar   
    22   10   81 1    
    23   11   12 ar   
    24   11   71 1    
    25   12   13 ar   
    26   12   82 1    
    27   13   14 ar   
    28   13   15 1    
    29   14   83 1    
    30   15   16 1    
    31   15   84 1    
    32   15   85 1    
    33   16   17 1    
    34   17   18 1    
    35   17   86 1    
    36   17   87 1    
    37   18   19 1    
    38   18   37 1    
    39   18   88 1    
    40   19   20 am   BACKBONE|DICT|INTERRES
    41   19   89 1    
    42   20   21 2    
    43   20   22 1    
    44   22   23 1    
    45   22   24 1    
    46   22   90 1    
    47   23   91 1    
    48   23   92 1    
    49   23   93 1    
    50   24   25 am   BACKBONE|DICT|INTERRES
    51   24   94 1    
    52   25   26 2    
    53   25   27 1    
    54   27   28 1    
    55   27   29 1    
    56   27   95 1    
    57   28   96 1    
    58   28   97 1    
    59   28   98 1    
    60   29   30 am   BACKBONE|DICT|INTERRES
    61   29   99 1    
    62   30   31 2    
    63   30   32 1    
    64   32   33 1    
    65   32   34 1    
    66   32  100 1    
    67   33  101 1    
    68   33  102 1    
    69   33  103 1    
    70   34   35 am   BACKBONE|DICT|INTERRES
    71   34  104 1    
    72   35   36 2    
    73   37   38 2    
    74   37   39 am   BACKBONE|DICT|INTERRES
    75   39   40 1    
    76   39  105 1    
    77   40   41 1    
    78   40   42 1    
    79   40  106 1    
    80   41  107 1    
    81   41  108 1    
    82   41  109 1    
    83   42   43 2    
    84   42   44 am   BACKBONE|DICT|INTERRES
    85   44   45 1    
    86   44  110 1    
    87   45   46 1    
    88   45   47 1    
    89   45  111 1    
    90   46  112 1    
    91   46  113 1    
    92   46  114 1    
    93   47   48 2    
    94   47   49 am   BACKBONE|DICT|INTERRES
    95   49   50 1    
    96   49  115 1    
    97   50   51 1    
    98   50   52 1    
    99   50  116 1    
   100   51  117 1    
   101   51  118 1    
   102   51  119 1    
   103   52   53 2    
   104   52   54 am   BACKBONE|DICT|INTERRES
   105   54   55 1    
   106   54  120 1    
   107   55   56 1    
   108   55   57 1    
   109   55  121 1    
   110   56  122 1    
   111   56  123 1    
   112   56  124 1    
   113   57   58 2    
   114   57   59 am   BACKBONE|DICT|INTERRES
   115   59   60 1    
   116   59  125 1    
   117   60   61 1    
   118   60   62 1    
   119   60  126 1    
   120   61  127 1    
   121   61  128 1    
   122   61  129 1    
   123   62   63 2    
   124   62   64 am   BACKBONE|DICT|INTERRES
   125   64   65 1    
   126   64  130 1    
   127   65   66 1    
   128   65   69 1    
   129   65  131 1    
   130   66   67 am   BACKBONE|DICT|INTERRES
   131   66   68 2    
   132   67  132 1    
   133   67  133 1    
   134   69   70 1    
   135   69  134 1    
   136   69  135 1    
   137   70   71 1    
   138   71  136 1    
   139   71  137 1    
@<TRIPOS>SUBSTRUCTURE
     1 UNK         1 GROUP             0       ****    0 ROOT    
