@<TRIPOS>MOLECULE
3R137
137   139    1
SMALL
USER_CHARGES


@<TRIPOS>ATOM
      1 CA         26.5802   -6.4919    1.7582 C.3       0 UNK        -0.2020 
      2 C          26.2901   -4.9986    1.7664 C.2       0 UNK         0.4855 
      3 O          25.2096   -4.5867    2.1890 O.2       0 UNK        -0.5197 
      4 N          27.2481   -4.1845    1.3051 N.am      1 UNK        -0.4892 
      5 CA         27.1413   -2.7231    1.2005 C.3       1 UNK         0.0835 
      6 C6         28.5265   -2.0498    1.0064 C.3       12 UNK        -0.0855 
      7 S7         29.5665   -2.8264   -0.2824 S.3       12 UNK        -0.2931 
      8 C8         29.3390   -1.6770   -1.6723 C.3       12 UNK         0.0378 
      9 C9         29.9863   -2.2179   -2.9374 C.ar      12 UNK        -0.0802 
     10 C10        31.1636   -1.6484   -3.4286 C.ar      12 UNK        -0.0944 
     11 C11        31.7645   -2.1486   -4.5874 C.ar      12 UNK        -0.0787 
     12 C12        31.1803   -3.2330   -5.2528 C.ar      12 UNK        -0.0862 
     13 C13        29.9977   -3.8075   -4.7749 C.ar      12 UNK        -0.0733 
     14 C14        29.4041   -3.2904   -3.6189 C.ar      12 UNK        -0.0832 
     15 C15        29.3878   -5.0153   -5.4776 C.3       12 UNK         0.0240 
     16 S16        28.4976   -4.5830   -7.0088 S.3       12 UNK        -0.2522 
     17 C17        27.0592   -3.6558   -6.3694 C.3       12 UNK        -0.0967 
     18 CA         26.7565   -2.3536   -7.1523 C.3       5 UNK         0.0660 
     19 N          25.5281   -1.7101   -6.6807 N.am      5 UNK        -0.4015 
     20 C          24.8747   -0.7381   -7.3354 C.2       4 UNK         0.4946 
     21 O          25.2022   -0.3151   -8.4430 O.2       4 UNK        -0.5353 
     22 CA         23.6781   -0.0946   -6.6145 C.3       4 UNK         0.0277 
     23 CB         22.4100   -0.9422   -6.8032 C.3       4 UNK        -0.1981 
     24 N          23.9259    0.1147   -5.1865 N.am      4 UNK        -0.4209 
     25 C          24.8645    0.9369   -4.6946 C.2       3 UNK         0.4942 
     26 O          25.5662    1.6665   -5.3933 O.2       3 UNK        -0.5208 
     27 CA         25.0925    0.9086   -3.1732 C.3       3 UNK         0.0250 
     28 CB         24.2281    1.9731   -2.4799 C.3       3 UNK        -0.1990 
     29 N          24.8488   -0.3995   -2.5543 N.am      3 UNK        -0.4232 
     30 C          25.4885   -1.5339   -2.8696 C.2       2 UNK         0.4993 
     31 O          26.3504   -1.6094   -3.7485 O.2       2 UNK        -0.5286 
     32 CA         25.0908   -2.7934   -2.0793 C.3       2 UNK         0.0209 
     33 CB         25.0602   -4.0391   -2.9832 C.3       2 UNK        -0.1931 
     34 N          25.9940   -3.0441   -0.9549 N.am      2 UNK        -0.4546 
     35 C          26.1261   -2.2669    0.1304 C.2       1 UNK         0.5154 
     36 O          25.4718   -1.2402    0.3193 O.2       1 UNK        -0.5181 
     37 C          27.9269   -1.3528   -7.1321 C.2       5 UNK         0.5014 
     38 O          28.6253   -1.2316   -8.1390 O.2       5 UNK        -0.5248 
     39 N          28.0714   -0.6140   -6.0202 N.am      6 UNK        -0.4434 
     40 CA         29.0753    0.4404   -5.8425 C.3       6 UNK         0.0363 
     41 CB         28.9315    1.0608   -4.4441 C.3       6 UNK        -0.1936 
     42 C          29.0035    1.5335   -6.9236 C.2       6 UNK         0.5081 
     43 O          30.0448    1.9687   -7.4191 O.2       6 UNK        -0.5248 
     44 N          27.7774    1.9385   -7.2811 N.am      7 UNK        -0.4718 
     45 CA         27.4918    2.8677   -8.3711 C.3       7 UNK         0.0273 
     46 CB         26.0355    3.3501   -8.2721 C.3       7 UNK        -0.1935 
     47 C          27.7772    2.2571   -9.7521 C.2       7 UNK         0.5018 
     48 O          28.4938    2.8756  -10.5388 O.2       7 UNK        -0.5186 
     49 N          27.2271    1.0630  -10.0239 N.am      8 UNK        -0.4240 
     50 CA         27.3395    0.3683  -11.3124 C.3       8 UNK         0.0235 
     51 CB         26.4372   -0.8759  -11.3203 C.3       8 UNK        -0.2000 
     52 C          28.7788   -0.0132  -11.6908 C.2       8 UNK         0.4941 
     53 O          29.1635    0.1636  -12.8474 O.2       8 UNK        -0.5273 
     54 N          29.5514   -0.5089  -10.7157 N.am      9 UNK        -0.4262 
     55 CA         30.9659   -0.8510  -10.8816 C.3       9 UNK         0.0264 
     56 CB         31.3344   -1.9547   -9.8774 C.3       9 UNK        -0.1955 
     57 C          31.9060    0.3645  -10.7556 C.2       9 UNK         0.5031 
     58 O          33.0975    0.2156  -11.0316 O.2       9 UNK        -0.5390 
     59 N          31.3670    1.5309  -10.3623 N.am      10 UNK        -0.4204 
     60 CA         32.0487    2.8163  -10.1643 C.3       10 UNK         0.0237 
     61 CB         32.5149    3.3995  -11.5153 C.3       10 UNK        -0.1985 
     62 C          33.1758    2.7270   -9.1181 C.2       10 UNK         0.4970 
     63 O          34.3108    3.1260   -9.3886 O.2       10 UNK        -0.4914 
     64 N          32.8313    2.1851   -7.9473 N.am      11 UNK        -0.4285 
     65 CA         33.7432    1.9059   -6.8286 C.3       11 UNK         0.1007 
     66 C          33.2117    2.3890   -5.4497 C.2       11 UNK         0.5703 
     67 N          32.0119    2.9502   -5.3553 N.am      11 UNK        -0.7361 
     68 O          33.9167    2.2839   -4.4489 O.2       11 UNK        -0.4986 
     69 C69        34.1951    0.4199   -6.8229 C.3       12 UNK        -0.0947 
     70 S70        32.7966   -0.7488   -6.7316 S.3       12 UNK        -0.2240 
     71 C71        33.0496   -1.5198   -5.1070 C.3       12 UNK         0.0194 
     72 H72        27.5722   -6.7131    1.3647 H         1 UNK         0.0906 
     73 H73        26.5205   -6.8912    2.7703 H         1 UNK         0.0906 
     74 H74        25.8474   -7.0129    1.1425 H         1 UNK         0.0906 
     75 H75        28.1224   -4.5707    0.9742 H         1 UNK         0.3140 
     76 H76        26.7431   -2.3652    2.1531 H         1 UNK         0.1085 
     77 H77        28.4236   -0.9797    0.8135 H         1 UNK         0.0836 
     78 H78        29.0820   -2.1165    1.9432 H         1 UNK         0.0836 
     79 H79        29.7582   -0.7051   -1.4071 H         1 UNK         0.0731 
     80 H80        28.2773   -1.5152   -1.8518 H         1 UNK         0.0731 
     81 H81        31.6133   -0.8145   -2.9070 H         1 UNK         0.1312 
     82 H82        31.6447   -3.6263   -6.1469 H         1 UNK         0.1406 
     83 H83        28.4941   -3.7289   -3.2341 H         1 UNK         0.1631 
     84 H84        28.7104   -5.5493   -4.8093 H         1 UNK         0.0717 
     85 H85        30.1820   -5.7208   -5.7260 H         1 UNK         0.0717 
     86 H86        26.1951   -4.3205   -6.4136 H         1 UNK         0.0934 
     87 H87        27.2081   -3.4357   -5.3144 H         1 UNK         0.0934 
     88 H88        26.5913   -2.6318   -8.1955 H         1 UNK         0.0739 
     89 H89        25.2456   -1.9309   -5.7364 H         1 UNK         0.3093 
     90 H90        23.5066    0.8832   -7.0702 H         1 UNK         0.0818 
     91 H91        21.5376   -0.4526   -6.3701 H         1 UNK         0.0819 
     92 H92        22.1995   -1.0957   -7.8627 H         1 UNK         0.0819 
     93 H93        22.5056   -1.9271   -6.3443 H         1 UNK         0.0819 
     94 H94        23.3804   -0.4328   -4.5372 H         1 UNK         0.3041 
     95 H95        26.1409    1.1560   -2.9978 H         1 UNK         0.0784 
     96 H96        24.4106    2.9612   -2.9053 H         1 UNK         0.0793 
     97 H97        23.1632    1.7631   -2.5875 H         1 UNK         0.0793 
     98 H98        24.4533    2.0349   -1.4149 H         1 UNK         0.0793 
     99 H99        24.2024   -0.4153   -1.7772 H         1 UNK         0.3024 
    100 H100       24.0843   -2.6463   -1.6810 H         1 UNK         0.1171 
    101 H101       24.6651   -4.9038   -2.4496 H         1 UNK         0.0786 
    102 H102       24.4217   -3.8784   -3.8528 H         1 UNK         0.0786 
    103 H103       26.0527   -4.3010   -3.3503 H         1 UNK         0.0786 
    104 H104       26.5807   -3.8631   -1.0155 H         1 UNK         0.2977 
    105 H105       27.4634   -0.8098   -5.2304 H         1 UNK         0.3127 
    106 H106       30.0530   -0.0382   -5.9098 H         1 UNK         0.0770 
    107 H107       28.0505    1.6977   -4.3710 H         1 UNK         0.0814 
    108 H108       29.7967    1.6777   -4.2038 H         1 UNK         0.0814 
    109 H109       28.8532    0.2983   -3.6721 H         1 UNK         0.0814 
    110 H110       26.9798    1.5850   -6.7597 H         1 UNK         0.2983 
    111 H111       28.1442    3.7357   -8.2519 H         1 UNK         0.0947 
    112 H112       25.7997    4.0510   -9.0739 H         1 UNK         0.0806 
    113 H113       25.8539    3.8635   -7.3276 H         1 UNK         0.0806 
    114 H114       25.3281    2.5228   -8.3403 H         1 UNK         0.0806 
    115 H115       26.6383    0.6185   -9.3230 H         1 UNK         0.3000 
    116 H116       26.9737    1.0529  -12.0806 H         1 UNK         0.0850 
    117 H117       26.5060   -1.4052  -12.2716 H         1 UNK         0.0810 
    118 H118       25.3908   -0.6070  -11.1753 H         1 UNK         0.0810 
    119 H119       26.7146   -1.5782  -10.5333 H         1 UNK         0.0810 
    120 H120       29.1522   -0.6609   -9.7882 H         1 UNK         0.3040 
    121 H121       31.1145   -1.2582  -11.8840 H         1 UNK         0.0766 
    122 H122       31.1319   -1.6452   -8.8534 H         1 UNK         0.0812 
    123 H123       32.3921   -2.2137   -9.9395 H         1 UNK         0.0812 
    124 H124       30.7642   -2.8647  -10.0638 H         1 UNK         0.0812 
    125 H125       30.3744    1.5413  -10.1651 H         1 UNK         0.3205 
    126 H126       31.3013    3.4964   -9.7527 H         1 UNK         0.0754 
    127 H127       32.9322    4.3988  -11.3859 H         1 UNK         0.0769 
    128 H128       31.6840    3.4837  -12.2158 H         1 UNK         0.0769 
    129 H129       33.2847    2.7827  -11.9804 H         1 UNK         0.0769 
    130 H130       31.8613    1.9131   -7.8015 H         1 UNK         0.2981 
    131 H131       34.6446    2.5040   -6.9719 H         1 UNK         0.0541 
    132 H132       31.3995    2.9980   -6.1579 H         1 UNK         0.3459 
    133 H133       31.6987    3.2841   -4.4586 H         1 UNK         0.3459 
    134 H134       34.9022    0.2288   -6.0141 H         1 UNK         0.0612 
    135 H135       34.7397    0.2056   -7.7437 H         1 UNK         0.0612 
    136 H136       33.8274   -2.2804   -5.1852 H         1 UNK         0.0624 
    137 H137       33.4147   -0.7682   -4.4052 H         1 UNK         0.0624 
@<TRIPOS>BOND
     1    1    2 1    
     2    1   72 1    
     3    1   73 1    
     4    1   74 1    
     5    2    3 2    
     6    2    4 am   BACKBONE|DICT|INTERRES
     7    4    5 1    
     8    4   75 1    
     9    5    6 1    
    10    5   35 1    
    11    5   76 1    
    12    6    7 1    
    13    6   77 1    
    14    6   78 1    
    15    7    8 1    
    16    8    9 1    
    17    8   79 1    
    18    8   80 1    
    19    9   10 ar   
    20    9   14 ar   
    21   10   11 ar   
    22   10   81 1    
    23   11   12 ar   
    24   11   71 1    
    25   12   13 ar   
    26   12   82 1    
    27   13   14 ar   
    28   13   15 1    
    29   14   83 1    
    30   15   16 1    
    31   15   84 1    
    32   15   85 1    
    33   16   17 1    
    34   17   18 1    
    35   17   86 1    
    36   17   87 1    
    37   18   19 1    
    38   18   37 1    
    39   18   88 1    
    40   19   20 am   BACKBONE|DICT|INTERRES
    41   19   89 1    
    42   20   21 2    
    43   20   22 1    
    44   22   23 1    
    45   22   24 1    
    46   22   90 1    
    47   23   91 1    
    48   23   92 1    
    49   23   93 1    
    50   24   25 am   BACKBONE|DICT|INTERRES
    51   24   94 1    
    52   25   26 2    
    53   25   27 1    
    54   27   28 1    
    55   27   29 1    
    56   27   95 1    
    57   28   96 1    
    58   28   97 1    
    59   28   98 1    
    60   29   30 am   BACKBONE|DICT|INTERRES
    61   29   99 1    
    62   30   31 2    
    63   30   32 1    
    64   32   33 1    
    65   32   34 1    
    66   32  100 1    
    67   33  101 1    
    68   33  102 1    
    69   33  103 1    
    70   34   35 am   BACKBONE|DICT|INTERRES
    71   34  104 1    
    72   35   36 2    
    73   37   38 2    
    74   37   39 am   BACKBONE|DICT|INTERRES
    75   39   40 1    
    76   39  105 1    
    77   40   41 1    
    78   40   42 1    
    79   40  106 1    
    80   41  107 1    
    81   41  108 1    
    82   41  109 1    
    83   42   43 2    
    84   42   44 am   BACKBONE|DICT|INTERRES
    85   44   45 1    
    86   44  110 1    
    87   45   46 1    
    88   45   47 1    
    89   45  111 1    
    90   46  112 1    
    91   46  113 1    
    92   46  114 1    
    93   47   48 2    
    94   47   49 am   BACKBONE|DICT|INTERRES
    95   49   50 1    
    96   49  115 1    
    97   50   51 1    
    98   50   52 1    
    99   50  116 1    
   100   51  117 1    
   101   51  118 1    
   102   51  119 1    
   103   52   53 2    
   104   52   54 am   BACKBONE|DICT|INTERRES
   105   54   55 1    
   106   54  120 1    
   107   55   56 1    
   108   55   57 1    
   109   55  121 1    
   110   56  122 1    
   111   56  123 1    
   112   56  124 1    
   113   57   58 2    
   114   57   59 am   BACKBONE|DICT|INTERRES
   115   59   60 1    
   116   59  125 1    
   117   60   61 1    
   118   60   62 1    
   119   60  126 1    
   120   61  127 1    
   121   61  128 1    
   122   61  129 1    
   123   62   63 2    
   124   62   64 am   BACKBONE|DICT|INTERRES
   125   64   65 1    
   126   64  130 1    
   127   65   66 1    
   128   65   69 1    
   129   65  131 1    
   130   66   67 am   BACKBONE|DICT|INTERRES
   131   66   68 2    
   132   67  132 1    
   133   67  133 1    
   134   69   70 1    
   135   69  134 1    
   136   69  135 1    
   137   70   71 1    
   138   71  136 1    
   139   71  137 1    
@<TRIPOS>SUBSTRUCTURE
     1 UNK         1 GROUP             0       ****    0 ROOT    
