@<TRIPOS>MOLECULE
3R137
137   139    1
SMALL
USER_CHARGES


@<TRIPOS>ATOM
      1 CA         27.5062    0.8730    0.9333 C.3       0 UNK        -0.2020 
      2 C          27.5945   -0.6422    0.8274 C.2       0 UNK         0.4855 
      3 O          27.0583   -1.3446    1.6841 O.2       0 UNK        -0.5197 
      4 N          28.2690   -1.1415   -0.2171 N.am      1 UNK        -0.4892 
      5 CA         28.4646   -2.5638   -0.5304 C.3       1 UNK         0.0835 
      6 C6         29.4178   -3.2740    0.4682 C.3       12 UNK        -0.0855 
      7 S7         30.2925   -4.6949   -0.2763 S.3       12 UNK        -0.2931 
      8 C8         31.7634   -3.9094   -1.0188 C.3       12 UNK         0.0378 
      9 C9         31.4176   -3.1318   -2.2824 C.ar      12 UNK        -0.0802 
     10 C10        31.0522   -3.8163   -3.4466 C.ar      12 UNK        -0.0944 
     11 C11        30.7124   -3.1151   -4.6073 C.ar      12 UNK        -0.0787 
     12 C12        30.7389   -1.7190   -4.5982 C.ar      12 UNK        -0.0862 
     13 C13        31.0904   -1.0219   -3.4390 C.ar      12 UNK        -0.0733 
     14 C14        31.4431   -1.7323   -2.2868 C.ar      12 UNK        -0.0832 
     15 C15        31.0860    0.4998   -3.4375 C.3       12 UNK         0.0240 
     16 S16        29.6364    1.2019   -2.5787 S.3       12 UNK        -0.2522 
     17 C17        28.2045    0.3950   -3.3767 C.3       12 UNK        -0.0967 
     18 CA         28.0344    0.6658   -4.8933 C.3       5 UNK         0.0660 
     19 N          27.2196   -0.3804   -5.5181 N.am      5 UNK        -0.4015 
     20 C          27.1610   -0.6170   -6.8359 C.2       4 UNK         0.4946 
     21 O          27.8221    0.0092   -7.6622 O.2       4 UNK        -0.5353 
     22 CA         26.1810   -1.6947   -7.3352 C.3       4 UNK         0.0277 
     23 CB         26.9154   -3.0312   -7.5206 C.3       4 UNK        -0.1981 
     24 N          25.0156   -1.8972   -6.4694 N.am      4 UNK        -0.4209 
     25 C          24.1167   -0.9570   -6.1411 C.2       3 UNK         0.4942 
     26 O          24.1386    0.1910   -6.5857 O.2       3 UNK        -0.5208 
     27 CA         23.0788   -1.3345   -5.0652 C.3       3 UNK         0.0250 
     28 CB         21.8192   -1.9227   -5.7196 C.3       3 UNK        -0.1990 
     29 N          23.5848   -2.2627   -4.0398 N.am      3 UNK        -0.4232 
     30 C          24.6839   -2.0548   -3.2993 C.2       2 UNK         0.4993 
     31 O          25.3836   -1.0410   -3.4025 O.2       2 UNK        -0.5286 
     32 CA         25.1247   -3.1732   -2.3413 C.3       2 UNK         0.0209 
     33 CB         25.3358   -4.5035   -3.0983 C.3       2 UNK        -0.1931 
     34 N          26.3777   -2.7184   -1.7476 N.am      2 UNK        -0.4546 
     35 C          27.1313   -3.2945   -0.8077 C.2       1 UNK         0.5154 
     36 O          26.8148   -4.3180   -0.1982 O.2       1 UNK        -0.5181 
     37 C          27.4968    2.0823   -5.1956 C.2       5 UNK         0.5014 
     38 O          28.2811    3.0310   -5.2115 O.2       5 UNK        -0.5248 
     39 N          26.1897    2.2014   -5.4701 N.am      6 UNK        -0.4434 
     40 CA         25.5649    3.4325   -5.9491 C.3       6 UNK         0.0363 
     41 CB         24.1360    3.5358   -5.3894 C.3       6 UNK        -0.1936 
     42 C          25.5531    3.4843   -7.4849 C.2       6 UNK         0.5081 
     43 O          25.8769    4.5259   -8.0553 O.2       6 UNK        -0.5248 
     44 N          25.1544    2.3754   -8.1251 N.am      7 UNK        -0.4718 
     45 CA         24.9200    2.2972   -9.5687 C.3       7 UNK         0.0273 
     46 CB         24.0616    1.0607   -9.8805 C.3       7 UNK        -0.1935 
     47 C          26.1985    2.2966  -10.4228 C.2       7 UNK         0.5018 
     48 O          26.2137    2.9535  -11.4650 O.2       7 UNK        -0.5186 
     49 N          27.2258    1.5516   -9.9939 N.am      8 UNK        -0.4240 
     50 CA         28.4846    1.3764  -10.7255 C.3       8 UNK         0.0235 
     51 CB         28.7175   -0.1210  -10.9934 C.3       8 UNK        -0.2000 
     52 C          29.6768    1.9704   -9.9661 C.2       8 UNK         0.4941 
     53 O          30.5828    2.5077  -10.6039 O.2       8 UNK        -0.5273 
     54 N          29.6816    1.8366   -8.6314 N.am      9 UNK        -0.4262 
     55 CA         30.6861    2.2925   -7.6573 C.3       9 UNK         0.0264 
     56 CB         30.8597    3.8228   -7.6914 C.3       9 UNK        -0.1955 
     57 C          32.0431    1.5714   -7.7437 C.2       9 UNK         0.5031 
     58 O          32.6011    1.2186   -6.7051 O.2       9 UNK        -0.5390 
     59 N          32.5418    1.3449   -8.9642 N.am      10 UNK        -0.4204 
     60 CA         33.7908    0.6377   -9.2559 C.3       10 UNK         0.0237 
     61 CB         34.1740    0.8868  -10.7239 C.3       10 UNK        -0.1985 
     62 C          33.7352   -0.8738   -8.9653 C.2       10 UNK         0.4970 
     63 O          34.7899   -1.4747   -8.7579 O.2       10 UNK        -0.4914 
     64 N          32.5267   -1.4580   -8.9691 N.am      11 UNK        -0.4285 
     65 CA         32.2640   -2.8920   -8.7501 C.3       11 UNK         0.1007 
     66 C          32.7896   -3.8229   -9.8906 C.2       11 UNK         0.5703 
     67 N          33.0322   -3.3116  -11.0925 N.am      11 UNK        -0.7361 
     68 O          32.9585   -5.0253   -9.7045 O.2       11 UNK        -0.4986 
     69 C69        32.6739   -3.3436   -7.3154 C.3       12 UNK        -0.0947 
     70 S70        31.6720   -4.7258   -6.6680 S.3       12 UNK        -0.2240 
     71 C71        30.2874   -3.8615   -5.8635 C.3       12 UNK         0.0194 
     72 H72        27.9386    1.2088    1.8755 H         1 UNK         0.0906 
     73 H73        26.4642    1.1904    0.9044 H         1 UNK         0.0906 
     74 H74        28.0346    1.3730    0.1219 H         1 UNK         0.0906 
     75 H75        28.6996   -0.4950   -0.8654 H         1 UNK         0.3140 
     76 H76        28.9575   -2.5562   -1.5004 H         1 UNK         0.1085 
     77 H77        28.8762   -3.6072    1.3553 H         1 UNK         0.0836 
     78 H78        30.1699   -2.5728    0.8330 H         1 UNK         0.0836 
     79 H79        32.2507   -3.2687   -0.2821 H         1 UNK         0.0731 
     80 H80        32.4864   -4.6871   -1.2692 H         1 UNK         0.0731 
     81 H81        31.0242   -4.8977   -3.4468 H         1 UNK         0.1312 
     82 H82        30.4807   -1.1757   -5.4963 H         1 UNK         0.1406 
     83 H83        31.7163   -1.1932   -1.3895 H         1 UNK         0.1631 
     84 H84        31.1266    0.8892   -4.4549 H         1 UNK         0.0717 
     85 H85        31.9909    0.8618   -2.9474 H         1 UNK         0.0717 
     86 H86        28.3108   -0.6769   -3.2076 H         1 UNK         0.0934 
     87 H87        27.3042    0.6886   -2.8333 H         1 UNK         0.0934 
     88 H88        29.0153    0.6056   -5.3615 H         1 UNK         0.0739 
     89 H89        26.5855   -0.8731   -4.8960 H         1 UNK         0.3093 
     90 H90        25.8152   -1.3706   -8.3104 H         1 UNK         0.0818 
     91 H91        27.7847   -2.9134   -8.1696 H         1 UNK         0.0819 
     92 H92        27.2668   -3.4347   -6.5703 H         1 UNK         0.0819 
     93 H93        26.2697   -3.7776   -7.9837 H         1 UNK         0.0819 
     94 H94        24.9130   -2.8119   -6.0550 H         1 UNK         0.3041 
     95 H95        22.7986   -0.4106   -4.5547 H         1 UNK         0.0784 
     96 H96        21.4163   -1.2422   -6.4714 H         1 UNK         0.0793 
     97 H97        22.0258   -2.8717   -6.2162 H         1 UNK         0.0793 
     98 H98        21.0317   -2.0917   -4.9848 H         1 UNK         0.0793 
     99 H99        23.0593   -3.1147   -3.9040 H         1 UNK         0.3024 
    100 H100       24.3740   -3.2897   -1.5572 H         1 UNK         0.1171 
    101 H101       26.0736   -4.4007   -3.8953 H         1 UNK         0.0786 
    102 H102       25.6782   -5.2953   -2.4322 H         1 UNK         0.0786 
    103 H103       24.4099   -4.8594   -3.5508 H         1 UNK         0.0786 
    104 H104       26.6664   -1.8256   -2.1301 H         1 UNK         0.2977 
    105 H105       25.6099    1.3714   -5.4755 H         1 UNK         0.3127 
    106 H106       26.1247    4.2984   -5.5881 H         1 UNK         0.0770 
    107 H107       23.6527    4.4540   -5.7256 H         1 UNK         0.0814 
    108 H108       23.5092    2.7025   -5.7090 H         1 UNK         0.0814 
    109 H109       24.1393    3.5521   -4.2995 H         1 UNK         0.0814 
    110 H110       24.8579    1.5729   -7.5735 H         1 UNK         0.2983 
    111 H111       24.3429    3.1792   -9.8565 H         1 UNK         0.0947 
    112 H112       24.5689    0.1356   -9.6091 H         1 UNK         0.0806 
    113 H113       23.8293    1.0048  -10.9450 H         1 UNK         0.0806 
    114 H114       23.1133    1.0906   -9.3433 H         1 UNK         0.0806 
    115 H115       27.1473    1.0594   -9.1092 H         1 UNK         0.3000 
    116 H116       28.4393    1.8831  -11.6919 H         1 UNK         0.0850 
    117 H117       29.6430   -0.2795  -11.5487 H         1 UNK         0.0810 
    118 H118       27.9081   -0.5442  -11.5884 H         1 UNK         0.0810 
    119 H119       28.7874   -0.6972  -10.0702 H         1 UNK         0.0810 
    120 H120       28.9338    1.2723   -8.2291 H         1 UNK         0.3040 
    121 H121       30.2769    2.0417   -6.6800 H         1 UNK         0.0766 
    122 H122       31.5314    4.1539   -6.8983 H         1 UNK         0.0812 
    123 H123       29.9062    4.3288   -7.5387 H         1 UNK         0.0812 
    124 H124       31.2783    4.1697   -8.6363 H         1 UNK         0.0812 
    125 H125       32.0107    1.7138   -9.7516 H         1 UNK         0.3205 
    126 H126       34.5722    1.0610   -8.6212 H         1 UNK         0.0754 
    127 H127       35.1122    0.3893  -10.9743 H         1 UNK         0.0769 
    128 H128       34.3108    1.9502  -10.9220 H         1 UNK         0.0769 
    129 H129       33.4123    0.5141  -11.4099 H         1 UNK         0.0769 
    130 H130       31.7201   -0.8853   -9.1647 H         1 UNK         0.2981 
    131 H131       31.1786   -2.9724   -8.8159 H         1 UNK         0.0541 
    132 H132       33.3634   -3.9180  -11.8262 H         1 UNK         0.3459 
    133 H133       32.8933   -2.3310  -11.2724 H         1 UNK         0.3459 
    134 H134       32.5901   -2.5106   -6.6169 H         1 UNK         0.0612 
    135 H135       33.7251   -3.6354   -7.2899 H         1 UNK         0.0612 
    136 H136       29.5228   -4.5938   -5.6010 H         1 UNK         0.0624 
    137 H137       29.8273   -3.1823   -6.5824 H         1 UNK         0.0624 
@<TRIPOS>BOND
     1    1    2 1    
     2    1   72 1    
     3    1   73 1    
     4    1   74 1    
     5    2    3 2    
     6    2    4 am   BACKBONE|DICT|INTERRES
     7    4    5 1    
     8    4   75 1    
     9    5    6 1    
    10    5   35 1    
    11    5   76 1    
    12    6    7 1    
    13    6   77 1    
    14    6   78 1    
    15    7    8 1    
    16    8    9 1    
    17    8   79 1    
    18    8   80 1    
    19    9   10 ar   
    20    9   14 ar   
    21   10   11 ar   
    22   10   81 1    
    23   11   12 ar   
    24   11   71 1    
    25   12   13 ar   
    26   12   82 1    
    27   13   14 ar   
    28   13   15 1    
    29   14   83 1    
    30   15   16 1    
    31   15   84 1    
    32   15   85 1    
    33   16   17 1    
    34   17   18 1    
    35   17   86 1    
    36   17   87 1    
    37   18   19 1    
    38   18   37 1    
    39   18   88 1    
    40   19   20 am   BACKBONE|DICT|INTERRES
    41   19   89 1    
    42   20   21 2    
    43   20   22 1    
    44   22   23 1    
    45   22   24 1    
    46   22   90 1    
    47   23   91 1    
    48   23   92 1    
    49   23   93 1    
    50   24   25 am   BACKBONE|DICT|INTERRES
    51   24   94 1    
    52   25   26 2    
    53   25   27 1    
    54   27   28 1    
    55   27   29 1    
    56   27   95 1    
    57   28   96 1    
    58   28   97 1    
    59   28   98 1    
    60   29   30 am   BACKBONE|DICT|INTERRES
    61   29   99 1    
    62   30   31 2    
    63   30   32 1    
    64   32   33 1    
    65   32   34 1    
    66   32  100 1    
    67   33  101 1    
    68   33  102 1    
    69   33  103 1    
    70   34   35 am   BACKBONE|DICT|INTERRES
    71   34  104 1    
    72   35   36 2    
    73   37   38 2    
    74   37   39 am   BACKBONE|DICT|INTERRES
    75   39   40 1    
    76   39  105 1    
    77   40   41 1    
    78   40   42 1    
    79   40  106 1    
    80   41  107 1    
    81   41  108 1    
    82   41  109 1    
    83   42   43 2    
    84   42   44 am   BACKBONE|DICT|INTERRES
    85   44   45 1    
    86   44  110 1    
    87   45   46 1    
    88   45   47 1    
    89   45  111 1    
    90   46  112 1    
    91   46  113 1    
    92   46  114 1    
    93   47   48 2    
    94   47   49 am   BACKBONE|DICT|INTERRES
    95   49   50 1    
    96   49  115 1    
    97   50   51 1    
    98   50   52 1    
    99   50  116 1    
   100   51  117 1    
   101   51  118 1    
   102   51  119 1    
   103   52   53 2    
   104   52   54 am   BACKBONE|DICT|INTERRES
   105   54   55 1    
   106   54  120 1    
   107   55   56 1    
   108   55   57 1    
   109   55  121 1    
   110   56  122 1    
   111   56  123 1    
   112   56  124 1    
   113   57   58 2    
   114   57   59 am   BACKBONE|DICT|INTERRES
   115   59   60 1    
   116   59  125 1    
   117   60   61 1    
   118   60   62 1    
   119   60  126 1    
   120   61  127 1    
   121   61  128 1    
   122   61  129 1    
   123   62   63 2    
   124   62   64 am   BACKBONE|DICT|INTERRES
   125   64   65 1    
   126   64  130 1    
   127   65   66 1    
   128   65   69 1    
   129   65  131 1    
   130   66   67 am   BACKBONE|DICT|INTERRES
   131   66   68 2    
   132   67  132 1    
   133   67  133 1    
   134   69   70 1    
   135   69  134 1    
   136   69  135 1    
   137   70   71 1    
   138   71  136 1    
   139   71  137 1    
@<TRIPOS>SUBSTRUCTURE
     1 UNK         1 GROUP             0       ****    0 ROOT    
