@<TRIPOS>MOLECULE
3R137
137   139    1
SMALL
USER_CHARGES


@<TRIPOS>ATOM
      1 CA         25.5427   -2.3752    3.4945 C.3       0 UNK        -0.2020 
      2 C          25.5463   -3.4255    2.3870 C.2       0 UNK         0.4855 
      3 O          24.6004   -4.2041    2.2899 O.2       0 UNK        -0.5197 
      4 N          26.5746   -3.4922    1.5291 N.am      1 UNK        -0.4892 
      5 CA         27.7614   -2.6244    1.4876 C.3       1 UNK         0.0835 
      6 C6         28.9769   -3.3598    0.8665 C.3       12 UNK        -0.0855 
      7 S7         28.7051   -4.0050   -0.8244 S.3       12 UNK        -0.2931 
      8 C8         29.6085   -2.7655   -1.8167 C.3       12 UNK         0.0378 
      9 C9         29.8373   -3.1550   -3.2771 C.ar      12 UNK        -0.0802 
     10 C10        30.9632   -2.6527   -3.9363 C.ar      12 UNK        -0.0944 
     11 C11        31.1961   -2.9348   -5.2863 C.ar      12 UNK        -0.0787 
     12 C12        30.2962   -3.7529   -5.9791 C.ar      12 UNK        -0.0862 
     13 C13        29.1775   -4.2856   -5.3291 C.ar      12 UNK        -0.0733 
     14 C14        28.9459   -3.9697   -3.9862 C.ar      12 UNK        -0.0832 
     15 C15        28.2485   -5.2571   -6.0451 C.3       12 UNK         0.0240 
     16 S16        26.5886   -4.5620   -6.3279 S.3       12 UNK        -0.2522 
     17 C17        26.6554   -4.0350   -8.0759 C.3       12 UNK        -0.0967 
     18 CA         26.4570   -2.5154   -8.2902 C.3       5 UNK         0.0660 
     19 N          25.2614   -1.9992   -7.6221 N.am      5 UNK        -0.4015 
     20 C          24.7630   -0.7665   -7.7853 C.2       4 UNK         0.4946 
     21 O          25.2036    0.0422   -8.6038 O.2       4 UNK        -0.5353 
     22 CA         23.6189   -0.3407   -6.8464 C.3       4 UNK         0.0277 
     23 CB         22.2647   -0.4844   -7.5585 C.3       4 UNK        -0.1981 
     24 N          23.5723   -1.0536   -5.5600 N.am      4 UNK        -0.4209 
     25 C          24.5597   -1.0863   -4.6529 C.2       3 UNK         0.4942 
     26 O          25.6711   -0.5846   -4.8335 O.2       3 UNK        -0.5208 
     27 CA         24.2722   -1.8581   -3.3548 C.3       3 UNK         0.0250 
     28 CB         24.5547   -3.3572   -3.5382 C.3       3 UNK        -0.1990 
     29 N          25.0883   -1.3657   -2.2452 N.am      3 UNK        -0.4232 
     30 C          24.8811   -0.2124   -1.5956 C.2       2 UNK         0.4993 
     31 O          23.9331    0.5399   -1.8290 O.2       2 UNK        -0.5286 
     32 CA         25.8800    0.1312   -0.4777 C.3       2 UNK         0.0209 
     33 CB         25.3183    1.1413    0.5444 C.3       2 UNK        -0.1931 
     34 N          26.3149   -1.0861    0.2108 N.am      2 UNK        -0.4546 
     35 C          27.5020   -1.2614    0.8045 C.2       1 UNK         0.5154 
     36 O          28.3782   -0.3964    0.8345 O.2       1 UNK        -0.5181 
     37 C          27.7338   -1.7153   -7.9608 C.2       5 UNK         0.5014 
     38 O          28.6115   -1.6383   -8.8197 O.2       5 UNK        -0.5248 
     39 N          27.8075   -1.0954   -6.7717 N.am      6 UNK        -0.4434 
     40 CA         28.9147   -0.2218   -6.3824 C.3       6 UNK         0.0363 
     41 CB         28.8329    0.1027   -4.8826 C.3       6 UNK        -0.1936 
     42 C          28.9444    1.0688   -7.2109 C.2       6 UNK         0.5081 
     43 O          30.0136    1.4802   -7.6609 O.2       6 UNK        -0.5248 
     44 N          27.7612    1.6583   -7.4323 N.am      7 UNK        -0.4718 
     45 CA         27.5695    2.8386   -8.2754 C.3       7 UNK         0.0273 
     46 CB         26.1669    3.4219   -8.0405 C.3       7 UNK        -0.1935 
     47 C          27.7965    2.5319   -9.7637 C.2       7 UNK         0.5018 
     48 O          28.3809    3.3598  -10.4624 O.2       7 UNK        -0.5186 
     49 N          27.3601    1.3447  -10.2119 N.am      8 UNK        -0.4240 
     50 CA         27.5840    0.8402  -11.5693 C.3       8 UNK         0.0235 
     51 CB         26.7410   -0.4226  -11.8057 C.3       8 UNK        -0.2000 
     52 C          29.0699    0.5682  -11.8623 C.2       8 UNK         0.4941 
     53 O          29.5513    0.9507  -12.9295 O.2       8 UNK        -0.5273 
     54 N          29.7711   -0.0698  -10.9129 N.am      9 UNK        -0.4262 
     55 CA         31.2111   -0.3313  -10.9837 C.3       9 UNK         0.0264 
     56 CB         31.5986   -1.3633   -9.9103 C.3       9 UNK        -0.1955 
     57 C          32.0657    0.9364  -10.8209 C.2       9 UNK         0.5031 
     58 O          33.1544    0.9982  -11.3939 O.2       9 UNK        -0.5390 
     59 N          31.5736    1.8962  -10.0216 N.am      10 UNK        -0.4204 
     60 CA         32.2559    3.1111   -9.5594 C.3       10 UNK         0.0237 
     61 CB         32.5499    4.0723  -10.7309 C.3       10 UNK        -0.1985 
     62 C          33.4972    2.7810   -8.7060 C.2       10 UNK         0.4970 
     63 O          34.5230    3.4563   -8.8138 O.2       10 UNK        -0.4914 
     64 N          33.3815    1.7236   -7.8932 N.am      11 UNK        -0.4285 
     65 CA         34.4320    1.2136   -7.0054 C.3       11 UNK         0.1007 
     66 C          34.6840    2.1154   -5.7633 C.2       11 UNK         0.5703 
     67 N          35.8243    1.9524   -5.1051 N.am      11 UNK        -0.7361 
     68 O          33.8609    2.9455   -5.3796 O.2       11 UNK        -0.4986 
     69 C69        34.1784   -0.2734   -6.6350 C.3       12 UNK        -0.0947 
     70 S70        32.5711   -0.5722   -5.8275 S.3       12 UNK        -0.2240 
     71 C71        32.4372   -2.3830   -5.9809 C.3       12 UNK         0.0194 
     72 H72        24.6148   -2.4264    4.0640 H         1 UNK         0.0906 
     73 H73        26.3648   -2.5429    4.1897 H         1 UNK         0.0906 
     74 H74        25.6221   -1.3675    3.0885 H         1 UNK         0.0906 
     75 H75        26.5586   -4.2059    0.8128 H         1 UNK         0.3140 
     76 H76        28.0442   -2.3846    2.5143 H         1 UNK         0.1085 
     77 H77        29.2322   -4.2128    1.4973 H         1 UNK         0.0836 
     78 H78        29.8632   -2.7226    0.8876 H         1 UNK         0.0836 
     79 H79        29.0643   -1.8207   -1.7896 H         1 UNK         0.0731 
     80 H80        30.5735   -2.5829   -1.3413 H         1 UNK         0.0731 
     81 H81        31.6599   -2.0220   -3.4008 H         1 UNK         0.1312 
     82 H82        30.4770   -3.9914   -7.0183 H         1 UNK         0.1406 
     83 H83        28.0714   -4.3739   -3.4961 H         1 UNK         0.1631 
     84 H84        28.1404   -6.1489   -5.4261 H         1 UNK         0.0717 
     85 H85        28.6863   -5.6028   -6.9823 H         1 UNK         0.0717 
     86 H86        27.5824   -4.3703   -8.5448 H         1 UNK         0.0934 
     87 H87        25.8639   -4.5722   -8.6007 H         1 UNK         0.0934 
     88 H88        26.2847   -2.3740   -9.3581 H         1 UNK         0.0739 
     89 H89        24.8553   -2.5983   -6.9187 H         1 UNK         0.3093 
     90 H90        23.7748    0.7165   -6.6217 H         1 UNK         0.0818 
     91 H91        21.4525   -0.0773   -6.9559 H         1 UNK         0.0819 
     92 H92        22.2627    0.0566   -8.5062 H         1 UNK         0.0819 
     93 H93        22.0319   -1.5271   -7.7786 H         1 UNK         0.0819 
     94 H94        22.6995   -1.5106   -5.3357 H         1 UNK         0.3041 
     95 H95        23.2187   -1.7271   -3.0979 H         1 UNK         0.0784 
     96 H96        23.9898   -3.7704   -4.3748 H         1 UNK         0.0793 
     97 H97        25.6114   -3.5441   -3.7313 H         1 UNK         0.0793 
     98 H98        24.2745   -3.9238   -2.6500 H         1 UNK         0.0793 
     99 H99        25.9231   -1.8919   -2.0340 H         1 UNK         0.3024 
    100 H100       26.7404    0.5868   -0.9740 H         1 UNK         0.1171 
    101 H101       25.0230    2.0716    0.0574 H         1 UNK         0.0786 
    102 H102       26.0607    1.3984    1.3001 H         1 UNK         0.0786 
    103 H103       24.4409    0.7457    1.0572 H         1 UNK         0.0786 
    104 H104       25.6535   -1.8512    0.2307 H         1 UNK         0.2977 
    105 H105       27.0321   -1.1611   -6.1178 H         1 UNK         0.3127 
    106 H106       29.8386   -0.7669   -6.5728 H         1 UNK         0.0770 
    107 H107       27.9923    0.7578   -4.6516 H         1 UNK         0.0814 
    108 H108       29.7413    0.6041   -4.5468 H         1 UNK         0.0814 
    109 H109       28.7182   -0.8009   -4.2866 H         1 UNK         0.0814 
    110 H110       26.9303    1.2236   -7.0559 H         1 UNK         0.2983 
    111 H111       28.3055    3.5889   -7.9773 H         1 UNK         0.0947 
    112 H112       26.0171    4.3238   -8.6356 H         1 UNK         0.0806 
    113 H113       26.0212    3.6964   -6.9957 H         1 UNK         0.0806 
    114 H114       25.3812    2.7175   -8.3153 H         1 UNK         0.0806 
    115 H115       26.8208    0.7600   -9.5801 H         1 UNK         0.3000 
    116 H116       27.2421    1.6097  -12.2650 H         1 UNK         0.0850 
    117 H117       26.7977   -0.7350  -12.8492 H         1 UNK         0.0810 
    118 H118       25.6895   -0.2518  -11.5732 H         1 UNK         0.0810 
    119 H119       27.0896   -1.2584  -11.2004 H         1 UNK         0.0810 
    120 H120       29.2858   -0.4299  -10.0932 H         1 UNK         0.3040 
    121 H121       31.4321   -0.7579  -11.9644 H         1 UNK         0.0766 
    122 H122       32.6666   -1.5833   -9.9435 H         1 UNK         0.0812 
    123 H123       31.0687   -2.3047  -10.0559 H         1 UNK         0.0812 
    124 H124       31.3701   -1.0050   -8.9053 H         1 UNK         0.0812 
    125 H125       30.7044    1.6971   -9.5354 H         1 UNK         0.3205 
    126 H126       31.5548    3.6133   -8.8909 H         1 UNK         0.0754 
    127 H127       32.9278    5.0278  -10.3655 H         1 UNK         0.0769 
    128 H128       31.6474    4.2793  -11.3063 H         1 UNK         0.0769 
    129 H129       33.2979    3.6671  -11.4128 H         1 UNK         0.0769 
    130 H130       32.4798    1.2744   -7.8087 H         1 UNK         0.2981 
    131 H131       35.3588    1.2380   -7.5821 H         1 UNK         0.0541 
    132 H132       36.0055    2.5215   -4.2932 H         1 UNK         0.3459 
    133 H133       36.5075    1.2738   -5.4033 H         1 UNK         0.3459 
    134 H134       34.9705   -0.6546   -5.9885 H         1 UNK         0.0612 
    135 H135       34.2195   -0.8782   -7.5423 H         1 UNK         0.0612 
    136 H136       32.4355   -2.6457   -7.0398 H         1 UNK         0.0624 
    137 H137       33.3221   -2.8462   -5.5425 H         1 UNK         0.0624 
@<TRIPOS>BOND
     1    1    2 1    
     2    1   72 1    
     3    1   73 1    
     4    1   74 1    
     5    2    3 2    
     6    2    4 am   BACKBONE|DICT|INTERRES
     7    4    5 1    
     8    4   75 1    
     9    5    6 1    
    10    5   35 1    
    11    5   76 1    
    12    6    7 1    
    13    6   77 1    
    14    6   78 1    
    15    7    8 1    
    16    8    9 1    
    17    8   79 1    
    18    8   80 1    
    19    9   10 ar   
    20    9   14 ar   
    21   10   11 ar   
    22   10   81 1    
    23   11   12 ar   
    24   11   71 1    
    25   12   13 ar   
    26   12   82 1    
    27   13   14 ar   
    28   13   15 1    
    29   14   83 1    
    30   15   16 1    
    31   15   84 1    
    32   15   85 1    
    33   16   17 1    
    34   17   18 1    
    35   17   86 1    
    36   17   87 1    
    37   18   19 1    
    38   18   37 1    
    39   18   88 1    
    40   19   20 am   BACKBONE|DICT|INTERRES
    41   19   89 1    
    42   20   21 2    
    43   20   22 1    
    44   22   23 1    
    45   22   24 1    
    46   22   90 1    
    47   23   91 1    
    48   23   92 1    
    49   23   93 1    
    50   24   25 am   BACKBONE|DICT|INTERRES
    51   24   94 1    
    52   25   26 2    
    53   25   27 1    
    54   27   28 1    
    55   27   29 1    
    56   27   95 1    
    57   28   96 1    
    58   28   97 1    
    59   28   98 1    
    60   29   30 am   BACKBONE|DICT|INTERRES
    61   29   99 1    
    62   30   31 2    
    63   30   32 1    
    64   32   33 1    
    65   32   34 1    
    66   32  100 1    
    67   33  101 1    
    68   33  102 1    
    69   33  103 1    
    70   34   35 am   BACKBONE|DICT|INTERRES
    71   34  104 1    
    72   35   36 2    
    73   37   38 2    
    74   37   39 am   BACKBONE|DICT|INTERRES
    75   39   40 1    
    76   39  105 1    
    77   40   41 1    
    78   40   42 1    
    79   40  106 1    
    80   41  107 1    
    81   41  108 1    
    82   41  109 1    
    83   42   43 2    
    84   42   44 am   BACKBONE|DICT|INTERRES
    85   44   45 1    
    86   44  110 1    
    87   45   46 1    
    88   45   47 1    
    89   45  111 1    
    90   46  112 1    
    91   46  113 1    
    92   46  114 1    
    93   47   48 2    
    94   47   49 am   BACKBONE|DICT|INTERRES
    95   49   50 1    
    96   49  115 1    
    97   50   51 1    
    98   50   52 1    
    99   50  116 1    
   100   51  117 1    
   101   51  118 1    
   102   51  119 1    
   103   52   53 2    
   104   52   54 am   BACKBONE|DICT|INTERRES
   105   54   55 1    
   106   54  120 1    
   107   55   56 1    
   108   55   57 1    
   109   55  121 1    
   110   56  122 1    
   111   56  123 1    
   112   56  124 1    
   113   57   58 2    
   114   57   59 am   BACKBONE|DICT|INTERRES
   115   59   60 1    
   116   59  125 1    
   117   60   61 1    
   118   60   62 1    
   119   60  126 1    
   120   61  127 1    
   121   61  128 1    
   122   61  129 1    
   123   62   63 2    
   124   62   64 am   BACKBONE|DICT|INTERRES
   125   64   65 1    
   126   64  130 1    
   127   65   66 1    
   128   65   69 1    
   129   65  131 1    
   130   66   67 am   BACKBONE|DICT|INTERRES
   131   66   68 2    
   132   67  132 1    
   133   67  133 1    
   134   69   70 1    
   135   69  134 1    
   136   69  135 1    
   137   70   71 1    
   138   71  136 1    
   139   71  137 1    
@<TRIPOS>SUBSTRUCTURE
     1 UNK         1 GROUP             0       ****    0 ROOT    
