@<TRIPOS>MOLECULE
3R137
137   139    1
SMALL
USER_CHARGES


@<TRIPOS>ATOM
      1 CA         24.5264   -5.7161   -6.7766 C.3       0 UNK        -0.2020 
      2 C          25.2489   -5.9422   -5.4569 C.2       0 UNK         0.4855 
      3 O          25.3182   -7.0760   -4.9802 O.2       0 UNK        -0.5197 
      4 N          25.7867   -4.8705   -4.8680 N.am      1 UNK        -0.4892 
      5 CA         26.4262   -4.8644   -3.5493 C.3       1 UNK         0.0835 
      6 C6         27.4893   -3.7394   -3.4606 C.3       12 UNK        -0.0855 
      7 S7         28.9192   -4.0515   -4.5493 S.3       12 UNK        -0.2931 
      8 C8         30.2967   -3.4584   -3.5149 C.3       12 UNK         0.0378 
      9 C9         30.4180   -1.9416   -3.5602 C.ar      12 UNK        -0.0802 
     10 C10        31.3423   -1.3422   -4.4205 C.ar      12 UNK        -0.0944 
     11 C11        31.4752    0.0482   -4.4625 C.ar      12 UNK        -0.0787 
     12 C12        30.6582    0.8441   -3.6553 C.ar      12 UNK        -0.0862 
     13 C13        29.7238    0.2578   -2.7966 C.ar      12 UNK        -0.0733 
     14 C14        29.6201   -1.1356   -2.7408 C.ar      12 UNK        -0.0832 
     15 C15        28.8396    1.1330   -1.9181 C.3       12 UNK         0.0240 
     16 S16        27.0651    0.9377   -2.2852 S.3       12 UNK        -0.2522 
     17 C17        26.9562    1.4441   -4.0377 C.3       12 UNK        -0.0967 
     18 CA         26.4504    0.2924   -4.9417 C.3       5 UNK         0.0660 
     19 N          25.1410   -0.2093   -4.5013 N.am      5 UNK        -0.4015 
     20 C          24.5635   -1.3447   -4.9120 C.2       4 UNK         0.4946 
     21 O          25.1107   -2.1700   -5.6468 O.2       4 UNK        -0.5353 
     22 CA         23.1316   -1.5845   -4.4069 C.3       4 UNK         0.0277 
     23 CB         22.4485   -2.7814   -5.0959 C.3       4 UNK        -0.1981 
     24 N          23.1110   -1.7750   -2.9550 N.am      4 UNK        -0.4209 
     25 C          23.0607   -0.7819   -2.0543 C.2       3 UNK         0.4942 
     26 O          23.0749    0.4086   -2.3720 O.2       3 UNK        -0.5208 
     27 CA         22.9646   -1.1527   -0.5612 C.3       3 UNK         0.0250 
     28 CB         21.5141   -1.0104   -0.0713 C.3       3 UNK        -0.1990 
     29 N          23.4342   -2.5088   -0.2690 N.am      3 UNK        -0.4232 
     30 C          24.7208   -2.8423   -0.1070 C.2       2 UNK         0.4993 
     31 O          25.6440   -2.0272   -0.1012 O.2       2 UNK        -0.5286 
     32 CA         25.0602   -4.3419    0.0160 C.3       2 UNK         0.0209 
     33 CB         23.8471   -5.2589    0.3011 C.3       2 UNK        -0.1931 
     34 N          25.7961   -4.7819   -1.1774 N.am      2 UNK        -0.4546 
     35 C          25.3630   -4.6881   -2.4447 C.2       1 UNK         0.5154 
     36 O          24.1964   -4.4118   -2.7378 O.2       1 UNK        -0.5181 
     37 C          26.4278    0.7315   -6.4237 C.2       5 UNK         0.5014 
     38 O          27.4629    0.6720   -7.0911 O.2       5 UNK        -0.5248 
     39 N          25.2449    1.1460   -6.9101 N.am      6 UNK        -0.4434 
     40 CA         24.9297    1.5303   -8.2888 C.3       6 UNK         0.0363 
     41 CB         24.9320    0.2803   -9.2002 C.3       6 UNK        -0.1936 
     42 C          25.8254    2.6834   -8.7814 C.2       6 UNK         0.5081 
     43 O          25.8726    3.7277   -8.1296 O.2       6 UNK        -0.5248 
     44 N          26.5204    2.4800   -9.9071 N.am      7 UNK        -0.4718 
     45 CA         27.4521    3.4389  -10.5053 C.3       7 UNK         0.0273 
     46 CB         27.6462    3.0735  -11.9877 C.3       7 UNK        -0.1935 
     47 C          28.8142    3.5195   -9.7882 C.2       7 UNK         0.5018 
     48 O          29.6135    4.3839  -10.1484 O.2       7 UNK        -0.5186 
     49 N          29.0769    2.6116   -8.8311 N.am      8 UNK        -0.4240 
     50 CA         30.3231    2.4563   -8.0637 C.3       8 UNK         0.0235 
     51 CB         30.6060    3.7136   -7.2115 C.3       8 UNK        -0.2000 
     52 C          31.5421    2.0324   -8.9124 C.2       8 UNK         0.4941 
     53 O          32.6735    2.1133   -8.4319 O.2       8 UNK        -0.5273 
     54 N          31.3013    1.5508  -10.1421 N.am      9 UNK        -0.4262 
     55 CA         32.3166    1.1743  -11.1335 C.3       9 UNK         0.0264 
     56 CB         31.6217    0.8026  -12.4532 C.3       9 UNK        -0.1955 
     57 C          33.2591    0.0451  -10.6822 C.2       9 UNK         0.5031 
     58 O          34.4160    0.0205  -11.1047 O.2       9 UNK        -0.5390 
     59 N          32.7697   -0.8365   -9.7984 N.am      10 UNK        -0.4204 
     60 CA         33.5323   -1.9133   -9.1579 C.3       10 UNK         0.0237 
     61 CB         32.5752   -2.7648   -8.3068 C.3       10 UNK        -0.1985 
     62 C          34.7186   -1.4253   -8.3025 C.2       10 UNK         0.4970 
     63 O          35.6570   -2.1947   -8.0923 O.2       10 UNK        -0.4914 
     64 N          34.6617   -0.1711   -7.8376 N.am      11 UNK        -0.4285 
     65 CA         35.7291    0.5017   -7.0865 C.3       11 UNK         0.1007 
     66 C          36.7431    1.2515   -8.0004 C.2       11 UNK         0.5703 
     67 N          36.5967    1.2466   -9.3218 N.am      11 UNK        -0.7361 
     68 O          37.7009    1.8373   -7.5007 O.2       11 UNK        -0.4986 
     69 C69        35.1413    1.4312   -5.9912 C.3       12 UNK        -0.0947 
     70 S70        34.1855    0.5170   -4.7333 S.3       12 UNK        -0.2240 
     71 C71        32.4969    0.6878   -5.3857 C.3       12 UNK         0.0194 
     72 H72        24.9871   -6.3106   -7.5650 H         1 UNK         0.0906 
     73 H73        23.4821   -6.0141   -6.6882 H         1 UNK         0.0906 
     74 H74        24.5550   -4.6691   -7.0798 H         1 UNK         0.0906 
     75 H75        25.6366   -3.9484   -5.2741 H         1 UNK         0.3140 
     76 H76        26.9150   -5.8266   -3.3799 H         1 UNK         0.1085 
     77 H77        27.0573   -2.7705   -3.7169 H         1 UNK         0.0836 
     78 H78        27.8566   -3.6416   -2.4385 H         1 UNK         0.0836 
     79 H79        31.2195   -3.9157   -3.8755 H         1 UNK         0.0731 
     80 H80        30.1781   -3.8013   -2.4861 H         1 UNK         0.0731 
     81 H81        31.9705   -1.9575   -5.0499 H         1 UNK         0.1312 
     82 H82        30.7539    1.9207   -3.6932 H         1 UNK         0.1406 
     83 H83        28.9051   -1.5852   -2.0662 H         1 UNK         0.1631 
     84 H84        29.1059    2.1863   -2.0201 H         1 UNK         0.0717 
     85 H85        29.0118    0.8740   -0.8726 H         1 UNK         0.0717 
     86 H86        26.2889    2.3060   -4.1005 H         1 UNK         0.0934 
     87 H87        27.9319    1.7956   -4.3784 H         1 UNK         0.0934 
     88 H88        27.1629   -0.5326   -4.8684 H         1 UNK         0.0739 
     89 H89        24.6381    0.3613   -3.8303 H         1 UNK         0.3093 
     90 H90        22.5472   -0.6969   -4.6597 H         1 UNK         0.0818 
     91 H91        22.4192   -2.6427   -6.1774 H         1 UNK         0.0819 
     92 H92        22.9705   -3.7183   -4.9052 H         1 UNK         0.0819 
     93 H93        21.4193   -2.8986   -4.7568 H         1 UNK         0.0819 
     94 H94        23.2244   -2.7341   -2.6377 H         1 UNK         0.3041 
     95 H95        23.5789   -0.4380   -0.0087 H         1 UNK         0.0784 
     96 H96        21.1406   -0.0002   -0.2457 H         1 UNK         0.0793 
     97 H97        20.8431   -1.6991   -0.5864 H         1 UNK         0.0793 
     98 H98        21.4362   -1.2019    0.9992 H         1 UNK         0.0793 
     99 H99        22.7446   -3.2467   -0.2837 H         1 UNK         0.3024 
    100 H100       25.7442   -4.4282    0.8622 H         1 UNK         0.1171 
    101 H101       24.1691   -6.2894    0.4515 H         1 UNK         0.0786 
    102 H102       23.3299   -4.9527    1.2115 H         1 UNK         0.0786 
    103 H103       23.1178   -5.2627   -0.5091 H         1 UNK         0.0786 
    104 H104       26.7677   -5.0117   -1.0202 H         1 UNK         0.2977 
    105 H105       24.4740    1.2062   -6.2610 H         1 UNK         0.3127 
    106 H106       23.9128    1.9254   -8.2757 H         1 UNK         0.0770 
    107 H107       25.9191   -0.1784   -9.2702 H         1 UNK         0.0814 
    108 H108       24.5994    0.5228  -10.2104 H         1 UNK         0.0814 
    109 H109       24.2491   -0.4790   -8.8184 H         1 UNK         0.0814 
    110 H110       26.4240    1.5889  -10.3730 H         1 UNK         0.2983 
    111 H111       27.0058    4.4346  -10.4542 H         1 UNK         0.0947 
    112 H112       28.3026    3.7887  -12.4859 H         1 UNK         0.0806 
    113 H113       26.6981    3.0823  -12.5259 H         1 UNK         0.0806 
    114 H114       28.0919    2.0853  -12.1076 H         1 UNK         0.0806 
    115 H115       28.3431    1.9552   -8.5834 H         1 UNK         0.3000 
    116 H116       30.1454    1.6298   -7.3737 H         1 UNK         0.0850 
    117 H117       31.4716    3.5752   -6.5651 H         1 UNK         0.0810 
    118 H118       29.7588    3.9523   -6.5686 H         1 UNK         0.0810 
    119 H119       30.8148    4.5867   -7.8296 H         1 UNK         0.0810 
    120 H120       30.3397    1.5111  -10.4452 H         1 UNK         0.3040 
    121 H121       32.9362    2.0560  -11.3106 H         1 UNK         0.0766 
    122 H122       31.0319    1.6340  -12.8400 H         1 UNK         0.0812 
    123 H123       30.9582   -0.0549  -12.3342 H         1 UNK         0.0812 
    124 H124       32.3536    0.5441  -13.2200 H         1 UNK         0.0812 
    125 H125       31.8057   -0.7337   -9.5174 H         1 UNK         0.3205 
    126 H126       33.9431   -2.5427   -9.9500 H         1 UNK         0.0754 
    127 H127       33.1067   -3.5839   -7.8199 H         1 UNK         0.0769 
    128 H128       31.7897   -3.2105   -8.9176 H         1 UNK         0.0769 
    129 H129       32.0978   -2.1751   -7.5235 H         1 UNK         0.0769 
    130 H130       33.8791    0.4203   -8.0923 H         1 UNK         0.2981 
    131 H131       36.3210   -0.2579   -6.5726 H         1 UNK         0.0541 
    132 H132       37.2720    1.7334   -9.8892 H         1 UNK         0.3459 
    133 H133       35.8270    0.7602   -9.7658 H         1 UNK         0.3459 
    134 H134       34.5207    2.2117   -6.4343 H         1 UNK         0.0612 
    135 H135       35.9423    1.9491   -5.4610 H         1 UNK         0.0612 
    136 H136       32.4278    0.2252   -6.3695 H         1 UNK         0.0624 
    137 H137       32.2783    1.7460   -5.5196 H         1 UNK         0.0624 
@<TRIPOS>BOND
     1    1    2 1    
     2    1   72 1    
     3    1   73 1    
     4    1   74 1    
     5    2    3 2    
     6    2    4 am   BACKBONE|DICT|INTERRES
     7    4    5 1    
     8    4   75 1    
     9    5    6 1    
    10    5   35 1    
    11    5   76 1    
    12    6    7 1    
    13    6   77 1    
    14    6   78 1    
    15    7    8 1    
    16    8    9 1    
    17    8   79 1    
    18    8   80 1    
    19    9   10 ar   
    20    9   14 ar   
    21   10   11 ar   
    22   10   81 1    
    23   11   12 ar   
    24   11   71 1    
    25   12   13 ar   
    26   12   82 1    
    27   13   14 ar   
    28   13   15 1    
    29   14   83 1    
    30   15   16 1    
    31   15   84 1    
    32   15   85 1    
    33   16   17 1    
    34   17   18 1    
    35   17   86 1    
    36   17   87 1    
    37   18   19 1    
    38   18   37 1    
    39   18   88 1    
    40   19   20 am   BACKBONE|DICT|INTERRES
    41   19   89 1    
    42   20   21 2    
    43   20   22 1    
    44   22   23 1    
    45   22   24 1    
    46   22   90 1    
    47   23   91 1    
    48   23   92 1    
    49   23   93 1    
    50   24   25 am   BACKBONE|DICT|INTERRES
    51   24   94 1    
    52   25   26 2    
    53   25   27 1    
    54   27   28 1    
    55   27   29 1    
    56   27   95 1    
    57   28   96 1    
    58   28   97 1    
    59   28   98 1    
    60   29   30 am   BACKBONE|DICT|INTERRES
    61   29   99 1    
    62   30   31 2    
    63   30   32 1    
    64   32   33 1    
    65   32   34 1    
    66   32  100 1    
    67   33  101 1    
    68   33  102 1    
    69   33  103 1    
    70   34   35 am   BACKBONE|DICT|INTERRES
    71   34  104 1    
    72   35   36 2    
    73   37   38 2    
    74   37   39 am   BACKBONE|DICT|INTERRES
    75   39   40 1    
    76   39  105 1    
    77   40   41 1    
    78   40   42 1    
    79   40  106 1    
    80   41  107 1    
    81   41  108 1    
    82   41  109 1    
    83   42   43 2    
    84   42   44 am   BACKBONE|DICT|INTERRES
    85   44   45 1    
    86   44  110 1    
    87   45   46 1    
    88   45   47 1    
    89   45  111 1    
    90   46  112 1    
    91   46  113 1    
    92   46  114 1    
    93   47   48 2    
    94   47   49 am   BACKBONE|DICT|INTERRES
    95   49   50 1    
    96   49  115 1    
    97   50   51 1    
    98   50   52 1    
    99   50  116 1    
   100   51  117 1    
   101   51  118 1    
   102   51  119 1    
   103   52   53 2    
   104   52   54 am   BACKBONE|DICT|INTERRES
   105   54   55 1    
   106   54  120 1    
   107   55   56 1    
   108   55   57 1    
   109   55  121 1    
   110   56  122 1    
   111   56  123 1    
   112   56  124 1    
   113   57   58 2    
   114   57   59 am   BACKBONE|DICT|INTERRES
   115   59   60 1    
   116   59  125 1    
   117   60   61 1    
   118   60   62 1    
   119   60  126 1    
   120   61  127 1    
   121   61  128 1    
   122   61  129 1    
   123   62   63 2    
   124   62   64 am   BACKBONE|DICT|INTERRES
   125   64   65 1    
   126   64  130 1    
   127   65   66 1    
   128   65   69 1    
   129   65  131 1    
   130   66   67 am   BACKBONE|DICT|INTERRES
   131   66   68 2    
   132   67  132 1    
   133   67  133 1    
   134   69   70 1    
   135   69  134 1    
   136   69  135 1    
   137   70   71 1    
   138   71  136 1    
   139   71  137 1    
@<TRIPOS>SUBSTRUCTURE
     1 UNK         1 GROUP             0       ****    0 ROOT    
