@<TRIPOS>MOLECULE
3R137
137   139    1
SMALL
USER_CHARGES


@<TRIPOS>ATOM
      1 CA         25.8397   -5.8776   -6.4610 C.3       0 UNK        -0.2020 
      2 C          25.9111   -5.3906   -5.0220 C.2       0 UNK         0.4855 
      3 O          24.8783   -5.0606   -4.4383 O.2       0 UNK        -0.5197 
      4 N          27.1219   -5.3287   -4.4495 N.am      1 UNK        -0.4892 
      5 CA         27.3937   -4.8587   -3.0856 C.3       1 UNK         0.0835 
      6 C6         28.8901   -5.0213   -2.7238 C.3       12 UNK        -0.0855 
      7 S7         29.1774   -4.9034   -0.9264 S.3       12 UNK        -0.2931 
      8 C8         30.9247   -4.3869   -0.8667 C.3       12 UNK         0.0378 
      9 C9         31.1564   -2.9687   -1.3791 C.ar      12 UNK        -0.0802 
     10 C10        32.0875   -2.7349   -2.3972 C.ar      12 UNK        -0.0944 
     11 C11        32.3544   -1.4320   -2.8281 C.ar      12 UNK        -0.0787 
     12 C12        31.6783   -0.3604   -2.2406 C.ar      12 UNK        -0.0862 
     13 C13        30.7251   -0.5786   -1.2418 C.ar      12 UNK        -0.0733 
     14 C14        30.4774   -1.8857   -0.8082 C.ar      12 UNK        -0.0832 
     15 C15        29.9746    0.5927   -0.6144 C.3       12 UNK         0.0240 
     16 S16        29.3034    1.7711   -1.8389 S.3       12 UNK        -0.2522 
     17 C17        28.1259    0.7276   -2.7598 C.3       12 UNK        -0.0967 
     18 CA         28.1315    1.0173   -4.2840 C.3       5 UNK         0.0660 
     19 N          27.6813   -0.1448   -5.0546 N.am      5 UNK        -0.4015 
     20 C          27.6021   -0.2284   -6.3907 C.2       4 UNK         0.4946 
     21 O          27.9720    0.6541   -7.1632 O.2       4 UNK        -0.5353 
     22 CA         26.9221   -1.4824   -6.9620 C.3       4 UNK         0.0277 
     23 CB         27.9012   -2.6634   -7.0451 C.3       4 UNK        -0.1981 
     24 N          25.7413   -1.8594   -6.1823 N.am      4 UNK        -0.4209 
     25 C          24.6077   -1.1437   -6.1387 C.2       3 UNK         0.4942 
     26 O          24.4135   -0.1257   -6.8017 O.2       3 UNK        -0.5208 
     27 CA         23.5282   -1.6161   -5.1525 C.3       3 UNK         0.0250 
     28 CB         22.6701   -2.7300   -5.7725 C.3       3 UNK        -0.1990 
     29 N          24.1004   -2.0685   -3.8812 N.am      3 UNK        -0.4232 
     30 C          24.6750   -1.2437   -2.9917 C.2       2 UNK         0.4993 
     31 O          24.7437   -0.0238   -3.1405 O.2       2 UNK        -0.5286 
     32 CA         25.3288   -1.8799   -1.7514 C.3       2 UNK         0.0209 
     33 CB         24.3058   -2.0122   -0.6126 C.3       2 UNK        -0.1931 
     34 N          25.9488   -3.1837   -2.0074 N.am      2 UNK        -0.4546 
     35 C          26.9196   -3.4030   -2.9050 C.2       1 UNK         0.5154 
     36 O          27.4039   -2.5203   -3.6144 O.2       1 UNK        -0.5181 
     37 C          27.3118    2.2809   -4.6222 C.2       5 UNK         0.5014 
     38 O          27.8972    3.3129   -4.9536 O.2       5 UNK        -0.5248 
     39 N          25.9752    2.1643   -4.5710 N.am      6 UNK        -0.4434 
     40 CA         25.0273    3.2298   -4.9087 C.3       6 UNK         0.0363 
     41 CB         23.6025    2.7842   -4.5433 C.3       6 UNK        -0.1936 
     42 C          25.0949    3.6665   -6.3825 C.2       6 UNK         0.5081 
     43 O          25.0104    4.8629   -6.6611 O.2       6 UNK        -0.5248 
     44 N          25.2572    2.7006   -7.2970 N.am      7 UNK        -0.4718 
     45 CA         25.4097    2.9393   -8.7359 C.3       7 UNK         0.0273 
     46 CB         25.1469    1.6246   -9.4889 C.3       7 UNK        -0.1935 
     47 C          26.7867    3.5050   -9.1324 C.2       7 UNK         0.5018 
     48 O          26.9109    4.0359  -10.2368 O.2       7 UNK        -0.5186 
     49 N          27.7877    3.3512   -8.2518 N.am      8 UNK        -0.4240 
     50 CA         29.2196    3.5912   -8.4687 C.3       8 UNK         0.0235 
     51 CB         29.5115    5.0886   -8.7038 C.3       8 UNK        -0.2000 
     52 C          29.7836    2.6718   -9.5711 C.2       8 UNK         0.4941 
     53 O          30.5103    3.1304  -10.4554 O.2       8 UNK        -0.5273 
     54 N          29.4074    1.3903   -9.5017 N.am      9 UNK        -0.4262 
     55 CA         29.7605    0.3326  -10.4447 C.3       9 UNK         0.0264 
     56 CB         28.4552   -0.2694  -10.9942 C.3       9 UNK        -0.1955 
     57 C          30.5853   -0.7467   -9.7313 C.2       9 UNK         0.5031 
     58 O          30.6293   -0.7733   -8.5005 O.2       9 UNK        -0.5390 
     59 N          31.2168   -1.6282  -10.5203 N.am      10 UNK        -0.4204 
     60 CA         31.9851   -2.8287  -10.1399 C.3       10 UNK         0.0237 
     61 CB         31.0915   -3.8468   -9.4033 C.3       10 UNK        -0.1985 
     62 C          33.2852   -2.5823   -9.3472 C.2       10 UNK         0.4970 
     63 O          34.2530   -3.3155   -9.5533 O.2       10 UNK        -0.4914 
     64 N          33.2931   -1.5775   -8.4666 N.am      11 UNK        -0.4285 
     65 CA         34.4135   -1.1907   -7.5953 C.3       11 UNK         0.1007 
     66 C          35.6708   -0.6444   -8.3342 C.2       11 UNK         0.5703 
     67 N          35.5832   -0.2489   -9.5990 N.am      11 UNK        -0.7361 
     68 O          36.7479   -0.5823   -7.7459 O.2       11 UNK        -0.4986 
     69 C69        33.9560   -0.1923   -6.4999 C.3       12 UNK        -0.0947 
     70 S70        32.5571   -0.8043   -5.4999 S.3       12 UNK        -0.2240 
     71 C71        33.3778   -1.1655   -3.9197 C.3       12 UNK         0.0194 
     72 H72        25.3763   -5.1191   -7.0915 H         1 UNK         0.0906 
     73 H73        26.8261   -6.1010   -6.8670 H         1 UNK         0.0906 
     74 H74        25.2359   -6.7827   -6.5191 H         1 UNK         0.0906 
     75 H75        27.9343   -5.5958   -4.9869 H         1 UNK         0.3140 
     76 H76        26.8120   -5.4992   -2.4187 H         1 UNK         0.1085 
     77 H77        29.2495   -6.0012   -3.0423 H         1 UNK         0.0836 
     78 H78        29.5014   -4.2881   -3.2545 H         1 UNK         0.0836 
     79 H79        31.5234   -5.1078   -1.4259 H         1 UNK         0.0731 
     80 H80        31.2688   -4.4422    0.1670 H         1 UNK         0.0731 
     81 H81        32.6174   -3.5645   -2.8451 H         1 UNK         0.1312 
     82 H82        31.8852    0.6470   -2.5755 H         1 UNK         0.1406 
     83 H83        29.7570   -2.0661   -0.0217 H         1 UNK         0.1631 
     84 H84        30.6556    1.1276    0.0487 H         1 UNK         0.0717 
     85 H85        29.1526    0.2365    0.0087 H         1 UNK         0.0717 
     86 H86        28.3938   -0.3147   -2.5865 H         1 UNK         0.0934 
     87 H87        27.1333    0.8510   -2.3246 H         1 UNK         0.0934 
     88 H88        29.1618    1.1972   -4.5991 H         1 UNK         0.0739 
     89 H89        27.4247   -0.9690   -4.5134 H         1 UNK         0.3093 
     90 H90        26.5936   -1.2468   -7.9763 H         1 UNK         0.0818 
     91 H91        27.4381   -3.5326   -7.5106 H         1 UNK         0.0819 
     92 H92        28.7667   -2.4001   -7.6516 H         1 UNK         0.0819 
     93 H93        28.2742   -2.9596   -6.0648 H         1 UNK         0.0819 
     94 H94        25.8391   -2.6419   -5.5518 H         1 UNK         0.3041 
     95 H95        22.8757   -0.7652   -4.9443 H         1 UNK         0.0784 
     96 H96        22.1938   -2.3858   -6.6916 H         1 UNK         0.0793 
     97 H97        23.2623   -3.6100   -6.0244 H         1 UNK         0.0793 
     98 H98        21.8761   -3.0432   -5.0944 H         1 UNK         0.0793 
     99 H99        24.1285   -3.0684   -3.7170 H         1 UNK         0.3024 
    100 H100       26.1196   -1.2040   -1.4205 H         1 UNK         0.1171 
    101 H101       24.7764   -2.3647    0.3055 H         1 UNK         0.0786 
    102 H102       23.8453   -1.0487   -0.3885 H         1 UNK         0.0786 
    103 H103       23.5033   -2.7055   -0.8678 H         1 UNK         0.0786 
    104 H104       25.5888   -3.9662   -1.4798 H         1 UNK         0.2977 
    105 H105       25.5711    1.2914   -4.2370 H         1 UNK         0.3127 
    106 H106       25.2792    4.0986   -4.2970 H         1 UNK         0.0770 
    107 H107       23.5178    2.5598   -3.4799 H         1 UNK         0.0814 
    108 H108       23.3049    1.8929   -5.0971 H         1 UNK         0.0814 
    109 H109       22.8774    3.5674   -4.7687 H         1 UNK         0.0814 
    110 H110       25.2491    1.7308   -6.9945 H         1 UNK         0.2983 
    111 H111       24.6574    3.6680   -9.0454 H         1 UNK         0.0947 
    112 H112       25.8660    0.8535   -9.2102 H         1 UNK         0.0806 
    113 H113       25.2227    1.7670  -10.5677 H         1 UNK         0.0806 
    114 H114       24.1477    1.2410   -9.2818 H         1 UNK         0.0806 
    115 H115       27.5670    2.8489   -7.3994 H         1 UNK         0.3000 
    116 H116       29.7175    3.2984   -7.5427 H         1 UNK         0.0850 
    117 H117       29.1015    5.7018   -7.9013 H         1 UNK         0.0810 
    118 H118       29.0924    5.4432   -9.6458 H         1 UNK         0.0810 
    119 H119       30.5856    5.2739   -8.7377 H         1 UNK         0.0810 
    120 H120       28.8912    1.0840   -8.6758 H         1 UNK         0.3040 
    121 H121       30.3509    0.7336  -11.2710 H         1 UNK         0.0766 
    122 H122       28.6547   -1.0433  -11.7364 H         1 UNK         0.0812 
    123 H123       27.8432    0.4920  -11.4785 H         1 UNK         0.0812 
    124 H124       27.8569   -0.7221  -10.2022 H         1 UNK         0.0812 
    125 H125       31.1427   -1.4830  -11.5183 H         1 UNK         0.3205 
    126 H126       32.2871   -3.2867  -11.0833 H         1 UNK         0.0754 
    127 H127       31.6191   -4.7896   -9.2528 H         1 UNK         0.0769 
    128 H128       30.1871   -4.0679   -9.9703 H         1 UNK         0.0769 
    129 H129       30.7921   -3.4858   -8.4190 H         1 UNK         0.0769 
    130 H130       32.4152   -1.0833   -8.3195 H         1 UNK         0.2981 
    131 H131       34.7403   -2.1014   -7.0902 H         1 UNK         0.0541 
    132 H132       36.4054    0.0993  -10.0661 H         1 UNK         0.3459 
    133 H133       34.7047   -0.2976  -10.0885 H         1 UNK         0.3459 
    134 H134       34.7865    0.0570   -5.8370 H         1 UNK         0.0612 
    135 H135       33.6448    0.7485   -6.9578 H         1 UNK         0.0612 
    136 H136       34.0015   -0.3195   -3.6271 H         1 UNK         0.0624 
    137 H137       34.0457   -2.0189   -4.0467 H         1 UNK         0.0624 
@<TRIPOS>BOND
     1    1    2 1    
     2    1   72 1    
     3    1   73 1    
     4    1   74 1    
     5    2    3 2    
     6    2    4 am   BACKBONE|DICT|INTERRES
     7    4    5 1    
     8    4   75 1    
     9    5    6 1    
    10    5   35 1    
    11    5   76 1    
    12    6    7 1    
    13    6   77 1    
    14    6   78 1    
    15    7    8 1    
    16    8    9 1    
    17    8   79 1    
    18    8   80 1    
    19    9   10 ar   
    20    9   14 ar   
    21   10   11 ar   
    22   10   81 1    
    23   11   12 ar   
    24   11   71 1    
    25   12   13 ar   
    26   12   82 1    
    27   13   14 ar   
    28   13   15 1    
    29   14   83 1    
    30   15   16 1    
    31   15   84 1    
    32   15   85 1    
    33   16   17 1    
    34   17   18 1    
    35   17   86 1    
    36   17   87 1    
    37   18   19 1    
    38   18   37 1    
    39   18   88 1    
    40   19   20 am   BACKBONE|DICT|INTERRES
    41   19   89 1    
    42   20   21 2    
    43   20   22 1    
    44   22   23 1    
    45   22   24 1    
    46   22   90 1    
    47   23   91 1    
    48   23   92 1    
    49   23   93 1    
    50   24   25 am   BACKBONE|DICT|INTERRES
    51   24   94 1    
    52   25   26 2    
    53   25   27 1    
    54   27   28 1    
    55   27   29 1    
    56   27   95 1    
    57   28   96 1    
    58   28   97 1    
    59   28   98 1    
    60   29   30 am   BACKBONE|DICT|INTERRES
    61   29   99 1    
    62   30   31 2    
    63   30   32 1    
    64   32   33 1    
    65   32   34 1    
    66   32  100 1    
    67   33  101 1    
    68   33  102 1    
    69   33  103 1    
    70   34   35 am   BACKBONE|DICT|INTERRES
    71   34  104 1    
    72   35   36 2    
    73   37   38 2    
    74   37   39 am   BACKBONE|DICT|INTERRES
    75   39   40 1    
    76   39  105 1    
    77   40   41 1    
    78   40   42 1    
    79   40  106 1    
    80   41  107 1    
    81   41  108 1    
    82   41  109 1    
    83   42   43 2    
    84   42   44 am   BACKBONE|DICT|INTERRES
    85   44   45 1    
    86   44  110 1    
    87   45   46 1    
    88   45   47 1    
    89   45  111 1    
    90   46  112 1    
    91   46  113 1    
    92   46  114 1    
    93   47   48 2    
    94   47   49 am   BACKBONE|DICT|INTERRES
    95   49   50 1    
    96   49  115 1    
    97   50   51 1    
    98   50   52 1    
    99   50  116 1    
   100   51  117 1    
   101   51  118 1    
   102   51  119 1    
   103   52   53 2    
   104   52   54 am   BACKBONE|DICT|INTERRES
   105   54   55 1    
   106   54  120 1    
   107   55   56 1    
   108   55   57 1    
   109   55  121 1    
   110   56  122 1    
   111   56  123 1    
   112   56  124 1    
   113   57   58 2    
   114   57   59 am   BACKBONE|DICT|INTERRES
   115   59   60 1    
   116   59  125 1    
   117   60   61 1    
   118   60   62 1    
   119   60  126 1    
   120   61  127 1    
   121   61  128 1    
   122   61  129 1    
   123   62   63 2    
   124   62   64 am   BACKBONE|DICT|INTERRES
   125   64   65 1    
   126   64  130 1    
   127   65   66 1    
   128   65   69 1    
   129   65  131 1    
   130   66   67 am   BACKBONE|DICT|INTERRES
   131   66   68 2    
   132   67  132 1    
   133   67  133 1    
   134   69   70 1    
   135   69  134 1    
   136   69  135 1    
   137   70   71 1    
   138   71  136 1    
   139   71  137 1    
@<TRIPOS>SUBSTRUCTURE
     1 UNK         1 GROUP             0       ****    0 ROOT    
