@<TRIPOS>MOLECULE
3R137
137   139    1
SMALL
USER_CHARGES


@<TRIPOS>ATOM
      1 CA         28.4668   -5.3141    0.8873 C.3       0 UNK        -0.2020 
      2 C          27.9715   -4.1806    0.0028 C.2       0 UNK         0.4855 
      3 O          27.8466   -4.3660   -1.2077 O.2       0 UNK        -0.5197 
      4 N          27.6935   -3.0129    0.6007 N.am      1 UNK        -0.4892 
      5 CA         27.2064   -1.7619   -0.0072 C.3       1 UNK         0.0835 
      6 C6         28.1515   -1.1517   -1.0777 C.3       12 UNK        -0.0855 
      7 S7         29.7495   -0.6070   -0.3867 S.3       12 UNK        -0.2931 
      8 C8         30.8780   -1.9455   -0.8872 C.3       12 UNK         0.0378 
      9 C9         31.0840   -2.0090   -2.3945 C.ar      12 UNK        -0.0802 
     10 C10        31.9333   -1.0969   -3.0273 C.ar      12 UNK        -0.0944 
     11 C11        32.1764   -1.1913   -4.4005 C.ar      12 UNK        -0.0787 
     12 C12        31.5547   -2.1993   -5.1442 C.ar      12 UNK        -0.0862 
     13 C13        30.6951   -3.1122   -4.5244 C.ar      12 UNK        -0.0733 
     14 C14        30.4661   -3.0110   -3.1495 C.ar      12 UNK        -0.0832 
     15 C15        30.0696   -4.2526   -5.3180 C.3       12 UNK         0.0240 
     16 S16        29.0980   -3.6846   -6.7478 S.3       12 UNK        -0.2522 
     17 C17        27.5917   -3.0202   -5.9634 C.3       12 UNK        -0.0967 
     18 CA         26.9828   -1.8819   -6.8226 C.3       5 UNK         0.0660 
     19 N          25.5174   -1.8824   -6.8082 N.am      5 UNK        -0.4015 
     20 C          24.7601   -1.2725   -7.7321 C.2       4 UNK         0.4946 
     21 O          25.2178   -0.6485   -8.6893 O.2       4 UNK        -0.5353 
     22 CA         23.2358   -1.3439   -7.5446 C.3       4 UNK         0.0277 
     23 CB         22.6875   -2.6869   -8.0528 C.3       4 UNK        -0.1981 
     24 N          22.8237   -1.1344   -6.1555 N.am      4 UNK        -0.4209 
     25 C          22.9872    0.0167   -5.4888 C.2       3 UNK         0.4942 
     26 O          23.4721    1.0328   -5.9829 O.2       3 UNK        -0.5208 
     27 CA         22.5863    0.0250   -4.0057 C.3       3 UNK         0.0250 
     28 CB         21.0852    0.3194   -3.8548 C.3       3 UNK        -0.1990 
     29 N          22.9237   -1.2045   -3.2788 N.am      3 UNK        -0.4232 
     30 C          24.1505   -1.7369   -3.1890 C.2       2 UNK         0.4993 
     31 O          25.1324   -1.3287   -3.8164 O.2       2 UNK        -0.5286 
     32 CA         24.3094   -2.9468   -2.2558 C.3       2 UNK         0.0209 
     33 CB         24.3695   -4.2483   -3.0712 C.3       2 UNK        -0.1931 
     34 N          25.5307   -2.8221   -1.4615 N.am      2 UNK        -0.4546 
     35 C          25.7689   -1.8665   -0.5551 C.2       1 UNK         0.5154 
     36 O          24.9108   -1.0767   -0.1569 O.2       1 UNK        -0.5181 
     37 C          27.5493   -0.4999   -6.4492 C.2       5 UNK         0.5014 
     38 O          28.5133   -0.0543   -7.0732 O.2       5 UNK        -0.5248 
     39 N          26.9089    0.1745   -5.4823 N.am      6 UNK        -0.4434 
     40 CA         27.2034    1.5548   -5.0947 C.3       6 UNK         0.0363 
     41 CB         26.3794    1.9288   -3.8526 C.3       6 UNK        -0.1936 
     42 C          26.9562    2.5578   -6.2361 C.2       6 UNK         0.5081 
     43 O          27.7814    3.4474   -6.4417 O.2       6 UNK        -0.5248 
     44 N          25.8456    2.3861   -6.9694 N.am      7 UNK        -0.4718 
     45 CA         25.4992    3.1810   -8.1509 C.3       7 UNK         0.0273 
     46 CB         24.0408    2.9115   -8.5542 C.3       7 UNK        -0.1935 
     47 C          26.4442    2.9297   -9.3368 C.2       7 UNK         0.5018 
     48 O          26.8308    3.8879  -10.0075 O.2       7 UNK        -0.5186 
     49 N          26.8065    1.6589   -9.5697 N.am      8 UNK        -0.4240 
     50 CA         27.7771    1.2524  -10.5903 C.3       8 UNK         0.0235 
     51 CB         27.7463   -0.2757  -10.7573 C.3       8 UNK        -0.2000 
     52 C          29.2077    1.7246  -10.2807 C.2       8 UNK         0.4941 
     53 O          29.9383    2.0642  -11.2122 O.2       8 UNK        -0.5273 
     54 N          29.5703    1.7283   -8.9879 N.am      9 UNK        -0.4262 
     55 CA         30.8791    2.0695   -8.4225 C.3       9 UNK         0.0264 
     56 CB         31.1939    3.5672   -8.6185 C.3       9 UNK        -0.1955 
     57 C          31.9834    1.1379   -8.9515 C.2       9 UNK         0.5031 
     58 O          33.0238    1.6060   -9.4196 O.2       9 UNK        -0.5390 
     59 N          31.7237   -0.1756   -8.8833 N.am      10 UNK        -0.4204 
     60 CA         32.5714   -1.2516   -9.4097 C.3       10 UNK         0.0237 
     61 CB         31.7058   -2.5132   -9.5897 C.3       10 UNK        -0.1985 
     62 C          33.8335   -1.5111   -8.5578 C.2       10 UNK         0.4970 
     63 O          34.0586   -2.6396   -8.1178 O.2       10 UNK        -0.4914 
     64 N          34.6239   -0.4575   -8.3401 N.am      11 UNK        -0.4285 
     65 CA         35.8864   -0.4383   -7.5941 C.3       11 UNK         0.1007 
     66 C          36.9692    0.3205   -8.4033 C.2       11 UNK         0.5703 
     67 N          38.2379   -0.0013   -8.1904 N.am      11 UNK        -0.7361 
     68 O          36.6795    1.2126   -9.1994 O.2       11 UNK        -0.4986 
     69 C69        35.7047    0.1898   -6.1854 C.3       12 UNK        -0.0947 
     70 S70        34.8264   -0.9229   -5.0427 S.3       12 UNK        -0.2240 
     71 C71        33.1447   -0.2344   -5.0744 C.3       12 UNK         0.0194 
     72 H72        29.4521   -5.6422    0.5573 H         1 UNK         0.0906 
     73 H73        27.7864   -6.1629    0.8240 H         1 UNK         0.0906 
     74 H74        28.5415   -5.0158    1.9329 H         1 UNK         0.0906 
     75 H75        27.8080   -2.9587    1.6038 H         1 UNK         0.3140 
     76 H76        27.1524   -1.0463    0.8155 H         1 UNK         0.1085 
     77 H77        27.6939   -0.2661   -1.5219 H         1 UNK         0.0836 
     78 H78        28.3049   -1.8412   -1.9073 H         1 UNK         0.0836 
     79 H79        31.8421   -1.7853   -0.4024 H         1 UNK         0.0731 
     80 H80        30.5090   -2.8976   -0.5061 H         1 UNK         0.0731 
     81 H81        32.4240   -0.3287   -2.4451 H         1 UNK         0.1312 
     82 H82        31.7583   -2.2889   -6.2024 H         1 UNK         0.1406 
     83 H83        29.8230   -3.7292   -2.6609 H         1 UNK         0.1631 
     84 H84        29.4353   -4.8745   -4.6839 H         1 UNK         0.0717 
     85 H85        30.8696   -4.9002   -5.6793 H         1 UNK         0.0717 
     86 H86        26.8916   -3.8524   -5.8762 H         1 UNK         0.0934 
     87 H87        27.7969   -2.6963   -4.9402 H         1 UNK         0.0934 
     88 H88        27.2634   -2.0591   -7.8635 H         1 UNK         0.0739 
     89 H89        25.0698   -2.2980   -6.0042 H         1 UNK         0.3093 
     90 H90        22.7939   -0.5470   -8.1471 H         1 UNK         0.0818 
     91 H91        22.9724   -2.8546   -9.0925 H         1 UNK         0.0819 
     92 H92        23.0665   -3.5285   -7.4716 H         1 UNK         0.0819 
     93 H93        21.5985   -2.7122   -8.0100 H         1 UNK         0.0819 
     94 H94        22.4125   -1.9180   -5.6696 H         1 UNK         0.3041 
     95 H95        23.1381    0.8374   -3.5288 H         1 UNK         0.0784 
     96 H96        20.8141    1.2398   -4.3743 H         1 UNK         0.0793 
     97 H97        20.4710   -0.4814   -4.2687 H         1 UNK         0.0793 
     98 H98        20.8087    0.4489   -2.8082 H         1 UNK         0.0793 
     99 H99        22.1772   -1.6194   -2.7394 H         1 UNK         0.3024 
    100 H100       23.4607   -2.9919   -1.5700 H         1 UNK         0.1171 
    101 H101       23.4651   -4.3817   -3.6662 H         1 UNK         0.0786 
    102 H102       24.4602   -5.1184   -2.4206 H         1 UNK         0.0786 
    103 H103       25.2180   -4.2556   -3.7569 H         1 UNK         0.0786 
    104 H104       26.3050   -3.4417   -1.6887 H         1 UNK         0.2977 
    105 H105       26.1578   -0.2938   -4.9778 H         1 UNK         0.3127 
    106 H106       28.2621    1.6029   -4.8309 H         1 UNK         0.0770 
    107 H107       26.5693    1.2438   -3.0270 H         1 UNK         0.0814 
    108 H108       26.6296    2.9328   -3.5076 H         1 UNK         0.0814 
    109 H109       25.3093    1.9122   -4.0591 H         1 UNK         0.0814 
    110 H110       25.1724    1.6790   -6.6855 H         1 UNK         0.2983 
    111 H111       25.5861    4.2356   -7.8803 H         1 UNK         0.0947 
    112 H112       23.8755    1.8603   -8.7933 H         1 UNK         0.0806 
    113 H113       23.7629    3.4953   -9.4327 H         1 UNK         0.0806 
    114 H114       23.3527    3.1837   -7.7538 H         1 UNK         0.0806 
    115 H115       26.3760    0.9172   -9.0238 H         1 UNK         0.3000 
    116 H116       27.4763    1.7053  -11.5375 H         1 UNK         0.0850 
    117 H117       28.4449   -0.5988  -11.5303 H         1 UNK         0.0810 
    118 H118       26.7553   -0.6227  -11.0502 H         1 UNK         0.0810 
    119 H119       28.0210   -0.7878   -9.8348 H         1 UNK         0.0810 
    120 H120       28.9113    1.3399   -8.3170 H         1 UNK         0.3040 
    121 H121       30.8059    1.8855   -7.3493 H         1 UNK         0.0766 
    122 H122       31.3181    3.8227   -9.6712 H         1 UNK         0.0812 
    123 H123       32.1170    3.8414   -8.1065 H         1 UNK         0.0812 
    124 H124       30.3984    4.1926   -8.2126 H         1 UNK         0.0812 
    125 H125       30.8493   -0.4583   -8.4609 H         1 UNK         0.3205 
    126 H126       32.9195   -0.9505  -10.4001 H         1 UNK         0.0754 
    127 H127       32.2789   -3.3194  -10.0495 H         1 UNK         0.0769 
    128 H128       30.8486   -2.3197  -10.2350 H         1 UNK         0.0769 
    129 H129       31.3305   -2.8838   -8.6356 H         1 UNK         0.0769 
    130 H130       34.3643    0.4263   -8.7737 H         1 UNK         0.2981 
    131 H131       36.2469   -1.4626   -7.4796 H         1 UNK         0.0541 
    132 H132       38.9586    0.4873   -8.6985 H         1 UNK         0.3459 
    133 H133       38.4901   -0.7227   -7.5325 H         1 UNK         0.3459 
    134 H134       35.1878    1.1494   -6.2470 H         1 UNK         0.0612 
    135 H135       36.6740    0.3979   -5.7284 H         1 UNK         0.0612 
    136 H136       33.1381    0.7346   -4.5729 H         1 UNK         0.0624 
    137 H137       32.8343   -0.0545   -6.1035 H         1 UNK         0.0624 
@<TRIPOS>BOND
     1    1    2 1    
     2    1   72 1    
     3    1   73 1    
     4    1   74 1    
     5    2    3 2    
     6    2    4 am   BACKBONE|DICT|INTERRES
     7    4    5 1    
     8    4   75 1    
     9    5    6 1    
    10    5   35 1    
    11    5   76 1    
    12    6    7 1    
    13    6   77 1    
    14    6   78 1    
    15    7    8 1    
    16    8    9 1    
    17    8   79 1    
    18    8   80 1    
    19    9   10 ar   
    20    9   14 ar   
    21   10   11 ar   
    22   10   81 1    
    23   11   12 ar   
    24   11   71 1    
    25   12   13 ar   
    26   12   82 1    
    27   13   14 ar   
    28   13   15 1    
    29   14   83 1    
    30   15   16 1    
    31   15   84 1    
    32   15   85 1    
    33   16   17 1    
    34   17   18 1    
    35   17   86 1    
    36   17   87 1    
    37   18   19 1    
    38   18   37 1    
    39   18   88 1    
    40   19   20 am   BACKBONE|DICT|INTERRES
    41   19   89 1    
    42   20   21 2    
    43   20   22 1    
    44   22   23 1    
    45   22   24 1    
    46   22   90 1    
    47   23   91 1    
    48   23   92 1    
    49   23   93 1    
    50   24   25 am   BACKBONE|DICT|INTERRES
    51   24   94 1    
    52   25   26 2    
    53   25   27 1    
    54   27   28 1    
    55   27   29 1    
    56   27   95 1    
    57   28   96 1    
    58   28   97 1    
    59   28   98 1    
    60   29   30 am   BACKBONE|DICT|INTERRES
    61   29   99 1    
    62   30   31 2    
    63   30   32 1    
    64   32   33 1    
    65   32   34 1    
    66   32  100 1    
    67   33  101 1    
    68   33  102 1    
    69   33  103 1    
    70   34   35 am   BACKBONE|DICT|INTERRES
    71   34  104 1    
    72   35   36 2    
    73   37   38 2    
    74   37   39 am   BACKBONE|DICT|INTERRES
    75   39   40 1    
    76   39  105 1    
    77   40   41 1    
    78   40   42 1    
    79   40  106 1    
    80   41  107 1    
    81   41  108 1    
    82   41  109 1    
    83   42   43 2    
    84   42   44 am   BACKBONE|DICT|INTERRES
    85   44   45 1    
    86   44  110 1    
    87   45   46 1    
    88   45   47 1    
    89   45  111 1    
    90   46  112 1    
    91   46  113 1    
    92   46  114 1    
    93   47   48 2    
    94   47   49 am   BACKBONE|DICT|INTERRES
    95   49   50 1    
    96   49  115 1    
    97   50   51 1    
    98   50   52 1    
    99   50  116 1    
   100   51  117 1    
   101   51  118 1    
   102   51  119 1    
   103   52   53 2    
   104   52   54 am   BACKBONE|DICT|INTERRES
   105   54   55 1    
   106   54  120 1    
   107   55   56 1    
   108   55   57 1    
   109   55  121 1    
   110   56  122 1    
   111   56  123 1    
   112   56  124 1    
   113   57   58 2    
   114   57   59 am   BACKBONE|DICT|INTERRES
   115   59   60 1    
   116   59  125 1    
   117   60   61 1    
   118   60   62 1    
   119   60  126 1    
   120   61  127 1    
   121   61  128 1    
   122   61  129 1    
   123   62   63 2    
   124   62   64 am   BACKBONE|DICT|INTERRES
   125   64   65 1    
   126   64  130 1    
   127   65   66 1    
   128   65   69 1    
   129   65  131 1    
   130   66   67 am   BACKBONE|DICT|INTERRES
   131   66   68 2    
   132   67  132 1    
   133   67  133 1    
   134   69   70 1    
   135   69  134 1    
   136   69  135 1    
   137   70   71 1    
   138   71  136 1    
   139   71  137 1    
@<TRIPOS>SUBSTRUCTURE
     1 UNK         1 GROUP             0       ****    0 ROOT    
