@<TRIPOS>MOLECULE
3R137
137   139    1
SMALL
USER_CHARGES


@<TRIPOS>ATOM
      1 CA         29.1882   -0.9126    2.8748 C.3       0 UNK        -0.2020 
      2 C          28.6524   -2.0105    1.9675 C.2       0 UNK         0.4855 
      3 O          28.0060   -2.9384    2.4550 O.2       0 UNK        -0.5197 
      4 N          28.9277   -1.9082    0.6592 N.am      1 UNK        -0.4892 
      5 CA         28.4696   -2.8057   -0.4123 C.3       1 UNK         0.0835 
      6 C6         28.8677   -4.2914   -0.1670 C.3       12 UNK        -0.0855 
      7 S7         29.1032   -5.2861   -1.6825 S.3       12 UNK        -0.2931 
      8 C8         30.8545   -4.9837   -2.0966 C.3       12 UNK         0.0378 
      9 C9         30.9846   -3.7675   -2.9990 C.ar      12 UNK        -0.0802 
     10 C10        31.2788   -2.5115   -2.4631 C.ar      12 UNK        -0.0944 
     11 C11        31.2725   -1.3688   -3.2683 C.ar      12 UNK        -0.0787 
     12 C12        31.0022   -1.5089   -4.6373 C.ar      12 UNK        -0.0862 
     13 C13        30.7806   -2.7700   -5.2007 C.ar      12 UNK        -0.0733 
     14 C14        30.7693   -3.8954   -4.3728 C.ar      12 UNK        -0.0832 
     15 C15        30.5792   -2.9087   -6.7062 C.3       12 UNK         0.0240 
     16 S16        29.1354   -3.9246   -7.1786 S.3       12 UNK        -0.2522 
     17 C17        27.7414   -3.0573   -6.3850 C.3       12 UNK        -0.0967 
     18 CA         27.1217   -1.9573   -7.2833 C.3       5 UNK         0.0660 
     19 N          25.7124   -1.7118   -6.9712 N.am      5 UNK        -0.4015 
     20 C          24.8803   -0.9797   -7.7274 C.2       4 UNK         0.4946 
     21 O          25.1977   -0.4684   -8.8004 O.2       4 UNK        -0.5353 
     22 CA         23.4666   -0.7369   -7.1737 C.3       4 UNK         0.0277 
     23 CB         22.5379   -1.9089   -7.5280 C.3       4 UNK        -0.1981 
     24 N          23.4547   -0.5165   -5.7259 N.am      4 UNK        -0.4209 
     25 C          24.0412    0.5226   -5.1138 C.2       3 UNK         0.4942 
     26 O          24.6071    1.4381   -5.7084 O.2       3 UNK        -0.5208 
     27 CA         24.0433    0.5113   -3.5770 C.3       3 UNK         0.0250 
     28 CB         22.7675    1.1715   -3.0308 C.3       3 UNK        -0.1990 
     29 N          24.1945   -0.8286   -2.9976 N.am      3 UNK        -0.4232 
     30 C          25.2504   -1.6301   -3.1948 C.2       2 UNK         0.4993 
     31 O          26.1945   -1.3550   -3.9421 O.2       2 UNK        -0.5286 
     32 CA         25.2332   -2.9850   -2.4690 C.3       2 UNK         0.0209 
     33 CB         24.9106   -4.1222   -3.4512 C.3       2 UNK        -0.1931 
     34 N          26.5289   -3.2403   -1.8414 N.am      2 UNK        -0.4546 
     35 C          26.9800   -2.5910   -0.7617 C.2       1 UNK         0.5154 
     36 O          26.2807   -1.8143   -0.1044 O.2       1 UNK        -0.5181 
     37 C          27.9228   -0.6485   -7.2044 C.2       5 UNK         0.5014 
     38 O          28.6113   -0.3010   -8.1645 O.2       5 UNK        -0.5248 
     39 N          27.7835    0.0709   -6.0815 N.am      6 UNK        -0.4434 
     40 CA         28.4274    1.3647   -5.8405 C.3       6 UNK         0.0363 
     41 CB         28.1012    1.8369   -4.4159 C.3       6 UNK        -0.1936 
     42 C          28.0578    2.4415   -6.8790 C.2       6 UNK         0.5081 
     43 O          28.9084    3.2626   -7.2202 O.2       6 UNK        -0.5248 
     44 N          26.8147    2.4071   -7.3760 N.am      7 UNK        -0.4718 
     45 CA         26.3278    3.2696   -8.4489 C.3       7 UNK         0.0273 
     46 CB         24.7901    3.3051   -8.4249 C.3       7 UNK        -0.1935 
     47 C          26.8473    2.8502   -9.8350 C.2       7 UNK         0.5018 
     48 O          27.4497    3.6763  -10.5218 O.2       7 UNK        -0.5186 
     49 N          26.5601    1.6068  -10.2489 N.am      8 UNK        -0.4240 
     50 CA         26.7522    1.1545  -11.6299 C.3       8 UNK         0.0235 
     51 CB         25.7355    0.0489  -11.9604 C.3       8 UNK        -0.2000 
     52 C          28.1776    0.6746  -11.9337 C.2       8 UNK         0.4941 
     53 O          28.7220    1.0423  -12.9758 O.2       8 UNK        -0.5273 
     54 N          28.7409   -0.1631  -11.0550 N.am      9 UNK        -0.4262 
     55 CA         30.0504   -0.7936  -11.2503 C.3       9 UNK         0.0264 
     56 CB         30.0218   -2.2178  -10.6717 C.3       9 UNK        -0.1955 
     57 C          31.1892    0.0214  -10.6204 C.2       9 UNK         0.5031 
     58 O          32.2944    0.0151  -11.1647 O.2       9 UNK        -0.5390 
     59 N          30.8855    0.6987   -9.5036 N.am      10 UNK        -0.4204 
     60 CA         31.7697    1.4568   -8.6124 C.3       10 UNK         0.0237 
     61 CB         32.6208    2.4984   -9.3681 C.3       10 UNK        -0.1985 
     62 C          32.6294    0.5435   -7.7226 C.2       10 UNK         0.4970 
     63 O          32.8827   -0.6165   -8.0544 O.2       10 UNK        -0.4914 
     64 N          33.0319    1.0906   -6.5731 N.am      11 UNK        -0.4285 
     65 CA         33.8078    0.3935   -5.5394 C.3       11 UNK         0.1007 
     66 C          35.3062    0.2471   -5.9161 C.2       11 UNK         0.5703 
     67 N          35.9756   -0.7780   -5.4063 N.am      11 UNK        -0.7361 
     68 O          35.8763    1.0696   -6.6315 O.2       11 UNK        -0.4986 
     69 C69        33.6379    1.0663   -4.1511 C.3       12 UNK        -0.0947 
     70 S70        31.8938    1.3834   -3.7025 S.3       12 UNK        -0.2240 
     71 C71        31.5085   -0.0144   -2.5944 C.3       12 UNK         0.0194 
     72 H72        29.8393   -1.3398    3.6363 H         1 UNK         0.0906 
     73 H73        29.7580   -0.1659    2.3227 H         1 UNK         0.0906 
     74 H74        28.3644   -0.4065    3.3766 H         1 UNK         0.0906 
     75 H75        29.4338   -1.0944    0.3396 H         1 UNK         0.3140 
     76 H76        28.9909   -2.4546   -1.2989 H         1 UNK         0.1085 
     77 H77        29.7958   -4.3401    0.4044 H         1 UNK         0.0836 
     78 H78        28.1230   -4.7879    0.4578 H         1 UNK         0.0836 
     79 H79        31.4505   -4.8664   -1.1904 H         1 UNK         0.0731 
     80 H80        31.2516   -5.8616   -2.6085 H         1 UNK         0.0731 
     81 H81        31.4616   -2.4165   -1.4012 H         1 UNK         0.1312 
     82 H82        30.9771   -0.6408   -5.2786 H         1 UNK         0.1406 
     83 H83        30.5663   -4.8704   -4.7951 H         1 UNK         0.1631 
     84 H84        30.4992   -1.9298   -7.1780 H         1 UNK         0.0717 
     85 H85        31.4739   -3.3663   -7.1298 H         1 UNK         0.0717 
     86 H86        26.9944   -3.8267   -6.1879 H         1 UNK         0.0934 
     87 H87        28.0317   -2.6803   -5.4022 H         1 UNK         0.0934 
     88 H88        27.1539   -2.3010   -8.3199 H         1 UNK         0.0739 
     89 H89        25.3940   -2.0226   -6.0652 H         1 UNK         0.3093 
     90 H90        23.0768    0.1646   -7.6514 H         1 UNK         0.0818 
     91 H91        21.5123   -1.7107   -7.2161 H         1 UNK         0.0819 
     92 H92        22.5193   -2.0776   -8.6057 H         1 UNK         0.0819 
     93 H93        22.8588   -2.8394   -7.0583 H         1 UNK         0.0819 
     94 H94        22.9996   -1.2147   -5.1562 H         1 UNK         0.3041 
     95 H95        24.8995    1.1050   -3.2503 H         1 UNK         0.0784 
     96 H96        22.6455    2.1773   -3.4356 H         1 UNK         0.0793 
     97 H97        21.8730    0.6046   -3.2920 H         1 UNK         0.0793 
     98 H98        22.8021    1.2646   -1.9452 H         1 UNK         0.0793 
     99 H99        23.4614   -1.1320   -2.3722 H         1 UNK         0.3024 
    100 H100       24.4674   -2.9691   -1.6899 H         1 UNK         0.1171 
    101 H101       24.8513   -5.0819   -2.9373 H         1 UNK         0.0786 
    102 H102       23.9496   -3.9586   -3.9406 H         1 UNK         0.0786 
    103 H103       25.6661   -4.2098   -4.2317 H         1 UNK         0.0786 
    104 H104       27.1671   -3.8497   -2.3359 H         1 UNK         0.2977 
    105 H105       27.1980   -0.2992   -5.3371 H         1 UNK         0.3127 
    106 H106       29.5056    1.2079   -5.9075 H         1 UNK         0.0770 
    107 H107       27.0321    2.0048   -4.2830 H         1 UNK         0.0814 
    108 H108       28.6115    2.7743   -4.1909 H         1 UNK         0.0814 
    109 H109       28.4230    1.1066   -3.6730 H         1 UNK         0.0814 
    110 H110       26.1480    1.7563   -6.9728 H         1 UNK         0.2983 
    111 H111       26.6843    4.2845   -8.2584 H         1 UNK         0.0947 
    112 H112       24.4002    3.9391   -9.2223 H         1 UNK         0.0806 
    113 H113       24.4204    3.7069   -7.4813 H         1 UNK         0.0806 
    114 H114       24.3571    2.3125   -8.5535 H         1 UNK         0.0806 
    115 H115       26.0786    0.9643   -9.6220 H         1 UNK         0.3000 
    116 H116       26.5422    1.9932  -12.2981 H         1 UNK         0.0850 
    117 H117       25.8117   -0.2503  -13.0066 H         1 UNK         0.0810 
    118 H118       24.7128    0.3870  -11.7931 H         1 UNK         0.0810 
    119 H119       25.8948   -0.8443  -11.3553 H         1 UNK         0.0810 
    120 H120       28.2687   -0.3531  -10.1777 H         1 UNK         0.3040 
    121 H121       30.2586   -0.8786  -12.3193 H         1 UNK         0.0766 
    122 H122       29.2562   -2.8269  -11.1520 H         1 UNK         0.0812 
    123 H123       29.8242   -2.2152   -9.6006 H         1 UNK         0.0812 
    124 H124       30.9788   -2.7190  -10.8229 H         1 UNK         0.0812 
    125 H125       29.9595    0.5213   -9.1177 H         1 UNK         0.3205 
    126 H126       31.0973    2.0021   -7.9504 H         1 UNK         0.0754 
    127 H127       33.1183    3.1738   -8.6714 H         1 UNK         0.0769 
    128 H128       32.0052    3.1102  -10.0277 H         1 UNK         0.0769 
    129 H129       33.4007    2.0316   -9.9700 H         1 UNK         0.0769 
    130 H130       32.8098    2.0549   -6.3763 H         1 UNK         0.2981 
    131 H131       33.4117   -0.6195   -5.4638 H         1 UNK         0.0541 
    132 H132       35.5228   -1.4526   -4.8096 H         1 UNK         0.3459 
    133 H133       36.9534   -0.8824   -5.6278 H         1 UNK         0.3459 
    134 H134       34.1557    2.0271   -4.1326 H         1 UNK         0.0612 
    135 H135       34.1036    0.4584   -3.3736 H         1 UNK         0.0612 
    136 H136       30.6046    0.2437   -2.0416 H         1 UNK         0.0624 
    137 H137       32.3050   -0.1021   -1.8540 H         1 UNK         0.0624 
@<TRIPOS>BOND
     1    1    2 1    
     2    1   72 1    
     3    1   73 1    
     4    1   74 1    
     5    2    3 2    
     6    2    4 am   BACKBONE|DICT|INTERRES
     7    4    5 1    
     8    4   75 1    
     9    5    6 1    
    10    5   35 1    
    11    5   76 1    
    12    6    7 1    
    13    6   77 1    
    14    6   78 1    
    15    7    8 1    
    16    8    9 1    
    17    8   79 1    
    18    8   80 1    
    19    9   10 ar   
    20    9   14 ar   
    21   10   11 ar   
    22   10   81 1    
    23   11   12 ar   
    24   11   71 1    
    25   12   13 ar   
    26   12   82 1    
    27   13   14 ar   
    28   13   15 1    
    29   14   83 1    
    30   15   16 1    
    31   15   84 1    
    32   15   85 1    
    33   16   17 1    
    34   17   18 1    
    35   17   86 1    
    36   17   87 1    
    37   18   19 1    
    38   18   37 1    
    39   18   88 1    
    40   19   20 am   BACKBONE|DICT|INTERRES
    41   19   89 1    
    42   20   21 2    
    43   20   22 1    
    44   22   23 1    
    45   22   24 1    
    46   22   90 1    
    47   23   91 1    
    48   23   92 1    
    49   23   93 1    
    50   24   25 am   BACKBONE|DICT|INTERRES
    51   24   94 1    
    52   25   26 2    
    53   25   27 1    
    54   27   28 1    
    55   27   29 1    
    56   27   95 1    
    57   28   96 1    
    58   28   97 1    
    59   28   98 1    
    60   29   30 am   BACKBONE|DICT|INTERRES
    61   29   99 1    
    62   30   31 2    
    63   30   32 1    
    64   32   33 1    
    65   32   34 1    
    66   32  100 1    
    67   33  101 1    
    68   33  102 1    
    69   33  103 1    
    70   34   35 am   BACKBONE|DICT|INTERRES
    71   34  104 1    
    72   35   36 2    
    73   37   38 2    
    74   37   39 am   BACKBONE|DICT|INTERRES
    75   39   40 1    
    76   39  105 1    
    77   40   41 1    
    78   40   42 1    
    79   40  106 1    
    80   41  107 1    
    81   41  108 1    
    82   41  109 1    
    83   42   43 2    
    84   42   44 am   BACKBONE|DICT|INTERRES
    85   44   45 1    
    86   44  110 1    
    87   45   46 1    
    88   45   47 1    
    89   45  111 1    
    90   46  112 1    
    91   46  113 1    
    92   46  114 1    
    93   47   48 2    
    94   47   49 am   BACKBONE|DICT|INTERRES
    95   49   50 1    
    96   49  115 1    
    97   50   51 1    
    98   50   52 1    
    99   50  116 1    
   100   51  117 1    
   101   51  118 1    
   102   51  119 1    
   103   52   53 2    
   104   52   54 am   BACKBONE|DICT|INTERRES
   105   54   55 1    
   106   54  120 1    
   107   55   56 1    
   108   55   57 1    
   109   55  121 1    
   110   56  122 1    
   111   56  123 1    
   112   56  124 1    
   113   57   58 2    
   114   57   59 am   BACKBONE|DICT|INTERRES
   115   59   60 1    
   116   59  125 1    
   117   60   61 1    
   118   60   62 1    
   119   60  126 1    
   120   61  127 1    
   121   61  128 1    
   122   61  129 1    
   123   62   63 2    
   124   62   64 am   BACKBONE|DICT|INTERRES
   125   64   65 1    
   126   64  130 1    
   127   65   66 1    
   128   65   69 1    
   129   65  131 1    
   130   66   67 am   BACKBONE|DICT|INTERRES
   131   66   68 2    
   132   67  132 1    
   133   67  133 1    
   134   69   70 1    
   135   69  134 1    
   136   69  135 1    
   137   70   71 1    
   138   71  136 1    
   139   71  137 1    
@<TRIPOS>SUBSTRUCTURE
     1 UNK         1 GROUP             0       ****    0 ROOT    
