@<TRIPOS>MOLECULE
3R137
137   139    1
SMALL
USER_CHARGES


@<TRIPOS>ATOM
      1 CA         29.5988   -0.3713   -3.3415 C.3       0 UNK        -0.2020 
      2 C          29.8222   -0.2900   -1.8359 C.2       0 UNK         0.4855 
      3 O          30.2306    0.7592   -1.3442 O.2       0 UNK        -0.5197 
      4 N          29.5779   -1.3521   -1.0546 N.am      1 UNK        -0.4892 
      5 CA         29.0166   -2.6540   -1.4458 C.3       1 UNK         0.0835 
      6 C6         29.3056   -3.6974   -0.3323 C.3       12 UNK        -0.0855 
      7 S7         28.9003   -5.4269   -0.7573 S.3       12 UNK        -0.2931 
      8 C8         30.4822   -6.0404   -1.4235 C.3       12 UNK         0.0378 
      9 C9         30.8149   -5.4009   -2.7635 C.ar      12 UNK        -0.0802 
     10 C10        31.9335   -4.5706   -2.8971 C.ar      12 UNK        -0.0944 
     11 C11        32.2198   -3.9653   -4.1245 C.ar      12 UNK        -0.0787 
     12 C12        31.3835   -4.1973   -5.2179 C.ar      12 UNK        -0.0862 
     13 C13        30.2580   -5.0141   -5.0952 C.ar      12 UNK        -0.0733 
     14 C14        29.9874   -5.6264   -3.8689 C.ar      12 UNK        -0.0832 
     15 C15        29.3267   -5.2171   -6.2825 C.3       12 UNK         0.0240 
     16 S16        27.7239   -4.3854   -6.0378 S.3       12 UNK        -0.2522 
     17 C17        28.2145   -2.6343   -5.8694 C.3       12 UNK        -0.0967 
     18 CA         27.4077   -1.7091   -6.8038 C.3       5 UNK         0.0660 
     19 N          25.9749   -1.7419   -6.5010 N.am      5 UNK        -0.4015 
     20 C          25.0180   -1.3241   -7.3382 C.2       4 UNK         0.4946 
     21 O          25.2403   -0.8521   -8.4536 O.2       4 UNK        -0.5353 
     22 CA         23.5722   -1.4176   -6.8244 C.3       4 UNK         0.0277 
     23 CB         23.0812   -2.8747   -6.8272 C.3       4 UNK        -0.1981 
     24 N          23.4048   -0.8386   -5.4876 N.am      4 UNK        -0.4209 
     25 C          23.5890    0.4583   -5.2037 C.2       3 UNK         0.4942 
     26 O          23.9317    1.2975   -6.0334 O.2       3 UNK        -0.5208 
     27 CA         23.3752    0.9061   -3.7500 C.3       3 UNK         0.0250 
     28 CB         21.8920    1.2258   -3.5031 C.3       3 UNK        -0.1990 
     29 N          23.8501   -0.0295   -2.7261 N.am      3 UNK        -0.4232 
     30 C          25.0917   -0.5251   -2.6219 C.2       2 UNK         0.4993 
     31 O          25.9681   -0.3669   -3.4768 O.2       2 UNK        -0.5286 
     32 CA         25.3836   -1.2827   -1.3113 C.3       2 UNK         0.0209 
     33 CB         24.4701   -2.5172   -1.1372 C.3       2 UNK        -0.1931 
     34 N          26.8016   -1.6297   -1.1368 N.am      2 UNK        -0.4546 
     35 C          27.5117   -2.5603   -1.7934 C.2       1 UNK         0.5154 
     36 O          27.0400   -3.3082   -2.6488 O.2       1 UNK        -0.5181 
     37 C          27.9620   -0.2707   -6.7812 C.2       5 UNK         0.5014 
     38 O          28.8870    0.0297   -7.5405 O.2       5 UNK        -0.5248 
     39 N          27.3822    0.5973   -5.9372 N.am      6 UNK        -0.4434 
     40 CA         27.6788    2.0292   -5.8970 C.3       6 UNK         0.0363 
     41 CB         27.0624    2.6589   -4.6390 C.3       6 UNK        -0.1936 
     42 C          27.2064    2.7512   -7.1701 C.2       6 UNK         0.5081 
     43 O          27.9793    3.5171   -7.7431 O.2       6 UNK        -0.5248 
     44 N          25.9775    2.4618   -7.6251 N.am      7 UNK        -0.4718 
     45 CA         25.4068    2.9751   -8.8769 C.3       7 UNK         0.0273 
     46 CB         23.9165    2.6099   -8.9607 C.3       7 UNK        -0.1935 
     47 C          26.1540    2.4797  -10.1261 C.2       7 UNK         0.5018 
     48 O          26.3177    3.2464  -11.0755 O.2       7 UNK        -0.5186 
     49 N          26.6323    1.2277  -10.0865 N.am      8 UNK        -0.4240 
     50 CA         27.5216    0.6416  -11.0944 C.3       8 UNK         0.0235 
     51 CB         27.5542   -0.8843  -10.9088 C.3       8 UNK        -0.2000 
     52 C          28.9548    1.2119  -11.0650 C.2       8 UNK         0.4941 
     53 O          29.7100    0.9564  -12.0037 O.2       8 UNK        -0.5273 
     54 N          29.3066    1.9498   -9.9992 N.am      9 UNK        -0.4262 
     55 CA         30.6122    2.5513   -9.7099 C.3       9 UNK         0.0264 
     56 CB         30.9452    3.6619  -10.7290 C.3       9 UNK        -0.1955 
     57 C          31.7332    1.5055   -9.5621 C.2       9 UNK         0.5031 
     58 O          32.8591    1.7463  -10.0032 O.2       9 UNK        -0.5390 
     59 N          31.4085    0.3601   -8.9440 N.am      10 UNK        -0.4204 
     60 CA         32.3417   -0.7497   -8.7329 C.3       10 UNK         0.0237 
     61 CB         31.5520   -2.0184   -8.3848 C.3       10 UNK        -0.1985 
     62 C          33.3983   -0.4389   -7.6583 C.2       10 UNK         0.4970 
     63 O          34.5652   -0.7878   -7.8401 O.2       10 UNK        -0.4914 
     64 N          32.9741    0.2308   -6.5811 N.am      11 UNK        -0.4285 
     65 CA         33.8293    0.7287   -5.4918 C.3       11 UNK         0.1007 
     66 C          33.2261    1.9546   -4.7445 C.2       11 UNK         0.5703 
     67 N          32.1640    2.5828   -5.2396 N.am      11 UNK        -0.7361 
     68 O          33.7445    2.3683   -3.7102 O.2       11 UNK        -0.4986 
     69 C69        34.3420   -0.3949   -4.5433 C.3       12 UNK        -0.0947 
     70 S70        33.0037   -1.3561   -3.7602 S.3       12 UNK        -0.2240 
     71 C71        33.4198   -3.0466   -4.2791 C.3       12 UNK         0.0194 
     72 H72        30.0160   -1.2838   -3.7636 H         1 UNK         0.0906 
     73 H73        28.5360   -0.3275   -3.5640 H         1 UNK         0.0906 
     74 H74        30.0792    0.4688   -3.8431 H         1 UNK         0.0906 
     75 H75        29.7688   -1.2530   -0.0673 H         1 UNK         0.3140 
     76 H76        29.5282   -2.9845   -2.3503 H         1 UNK         0.1085 
     77 H77        30.3611   -3.6585   -0.0572 H         1 UNK         0.0836 
     78 H78        28.7576   -3.4404    0.5763 H         1 UNK         0.0836 
     79 H79        30.4139   -7.1213   -1.5544 H         1 UNK         0.0731 
     80 H80        31.2764   -5.8699   -0.6949 H         1 UNK         0.0731 
     81 H81        32.5742   -4.3827   -2.0463 H         1 UNK         0.1312 
     82 H82        31.6049   -3.7285   -6.1637 H         1 UNK         0.1406 
     83 H83        29.1109   -6.2521   -3.7650 H         1 UNK         0.1631 
     84 H84        29.1535   -6.2844   -6.4267 H         1 UNK         0.0717 
     85 H85        29.7817   -4.8523   -7.2049 H         1 UNK         0.0717 
     86 H86        28.0736   -2.3438   -4.8293 H         1 UNK         0.0934 
     87 H87        29.2806   -2.5368   -6.0698 H         1 UNK         0.0934 
     88 H88        27.5383   -2.0784   -7.8228 H         1 UNK         0.0739 
     89 H89        25.7161   -2.0913   -5.5891 H         1 UNK         0.3093 
     90 H90        22.9443   -0.8478   -7.5131 H         1 UNK         0.0818 
     91 H91        23.1919   -3.3203   -7.8169 H         1 UNK         0.0819 
     92 H92        23.6403   -3.4960   -6.1263 H         1 UNK         0.0819 
     93 H93        22.0255   -2.9375   -6.5629 H         1 UNK         0.0819 
     94 H94        23.1298   -1.4607   -4.7415 H         1 UNK         0.3041 
     95 H95        23.9406    1.8300   -3.6156 H         1 UNK         0.0784 
     96 H96        21.5174    1.9367   -4.2414 H         1 UNK         0.0793 
     97 H97        21.2692    0.3325   -3.5660 H         1 UNK         0.0793 
     98 H98        21.7393    1.6742   -2.5212 H         1 UNK         0.0793 
     99 H99        23.1995   -0.2237   -1.9786 H         1 UNK         0.3024 
    100 H100       25.1576   -0.5874   -0.5009 H         1 UNK         0.1171 
    101 H101       24.7349   -3.0831   -0.2439 H         1 UNK         0.0786 
    102 H102       23.4245   -2.2273   -1.0308 H         1 UNK         0.0786 
    103 H103       24.5292   -3.1940   -1.9902 H         1 UNK         0.0786 
    104 H104       27.3113   -1.0415   -0.4924 H         1 UNK         0.2977 
    105 H105       26.6723    0.2596   -5.2937 H         1 UNK         0.3127 
    106 H106       28.7631    2.1432   -5.8319 H         1 UNK         0.0770 
    107 H107       25.9752    2.5893   -4.6437 H         1 UNK         0.0814 
    108 H108       27.3209    3.7160   -4.5672 H         1 UNK         0.0814 
    109 H109       27.4253    2.1729   -3.7331 H         1 UNK         0.0814 
    110 H110       25.3707    1.8633   -7.0674 H         1 UNK         0.2983 
    111 H111       25.4905    4.0638   -8.8571 H         1 UNK         0.0947 
    112 H112       23.4719    2.9839   -9.8839 H         1 UNK         0.0806 
    113 H113       23.3561    3.0437   -8.1325 H         1 UNK         0.0806 
    114 H114       23.7646    1.5300   -8.9370 H         1 UNK         0.0806 
    115 H115       26.3687    0.6338   -9.3057 H         1 UNK         0.3000 
    116 H116       27.1053    0.8581  -12.0805 H         1 UNK         0.0850 
    117 H117       28.1387   -1.3615  -11.6965 H         1 UNK         0.0810 
    118 H118       26.5523   -1.3127  -10.9440 H         1 UNK         0.0810 
    119 H119       28.0062   -1.1619   -9.9569 H         1 UNK         0.0810 
    120 H120       28.6068    2.1014   -9.2826 H         1 UNK         0.3040 
    121 H121       30.5151    3.0251   -8.7323 H         1 UNK         0.0766 
    122 H122       31.1169    3.2583  -11.7273 H         1 UNK         0.0812 
    123 H123       31.8466    4.2024  -10.4379 H         1 UNK         0.0812 
    124 H124       30.1384    4.3918  -10.7957 H         1 UNK         0.0812 
    125 H125       30.4613    0.2458   -8.5861 H         1 UNK         0.3205 
    126 H126       32.8691   -0.9308   -9.6722 H         1 UNK         0.0754 
    127 H127       32.2204   -2.8727   -8.2712 H         1 UNK         0.0769 
    128 H128       30.8358   -2.2682   -9.1680 H         1 UNK         0.0769 
    129 H129       30.9999   -1.8960   -7.4544 H         1 UNK         0.0769 
    130 H130       31.9912    0.4363   -6.4913 H         1 UNK         0.2981 
    131 H131       34.7143    1.1497   -5.9723 H         1 UNK         0.0541 
    132 H132       31.7687    2.3377   -6.1297 H         1 UNK         0.3459 
    133 H133       31.8044    3.3787   -4.7368 H         1 UNK         0.3459 
    134 H134       34.9720    0.0198   -3.7548 H         1 UNK         0.0612 
    135 H135       34.9944   -1.0682   -5.1001 H         1 UNK         0.0612 
    136 H136       34.2592   -3.4127   -3.6862 H         1 UNK         0.0624 
    137 H137       33.7499   -3.0413   -5.3193 H         1 UNK         0.0624 
@<TRIPOS>BOND
     1    1    2 1    
     2    1   72 1    
     3    1   73 1    
     4    1   74 1    
     5    2    3 2    
     6    2    4 am   BACKBONE|DICT|INTERRES
     7    4    5 1    
     8    4   75 1    
     9    5    6 1    
    10    5   35 1    
    11    5   76 1    
    12    6    7 1    
    13    6   77 1    
    14    6   78 1    
    15    7    8 1    
    16    8    9 1    
    17    8   79 1    
    18    8   80 1    
    19    9   10 ar   
    20    9   14 ar   
    21   10   11 ar   
    22   10   81 1    
    23   11   12 ar   
    24   11   71 1    
    25   12   13 ar   
    26   12   82 1    
    27   13   14 ar   
    28   13   15 1    
    29   14   83 1    
    30   15   16 1    
    31   15   84 1    
    32   15   85 1    
    33   16   17 1    
    34   17   18 1    
    35   17   86 1    
    36   17   87 1    
    37   18   19 1    
    38   18   37 1    
    39   18   88 1    
    40   19   20 am   BACKBONE|DICT|INTERRES
    41   19   89 1    
    42   20   21 2    
    43   20   22 1    
    44   22   23 1    
    45   22   24 1    
    46   22   90 1    
    47   23   91 1    
    48   23   92 1    
    49   23   93 1    
    50   24   25 am   BACKBONE|DICT|INTERRES
    51   24   94 1    
    52   25   26 2    
    53   25   27 1    
    54   27   28 1    
    55   27   29 1    
    56   27   95 1    
    57   28   96 1    
    58   28   97 1    
    59   28   98 1    
    60   29   30 am   BACKBONE|DICT|INTERRES
    61   29   99 1    
    62   30   31 2    
    63   30   32 1    
    64   32   33 1    
    65   32   34 1    
    66   32  100 1    
    67   33  101 1    
    68   33  102 1    
    69   33  103 1    
    70   34   35 am   BACKBONE|DICT|INTERRES
    71   34  104 1    
    72   35   36 2    
    73   37   38 2    
    74   37   39 am   BACKBONE|DICT|INTERRES
    75   39   40 1    
    76   39  105 1    
    77   40   41 1    
    78   40   42 1    
    79   40  106 1    
    80   41  107 1    
    81   41  108 1    
    82   41  109 1    
    83   42   43 2    
    84   42   44 am   BACKBONE|DICT|INTERRES
    85   44   45 1    
    86   44  110 1    
    87   45   46 1    
    88   45   47 1    
    89   45  111 1    
    90   46  112 1    
    91   46  113 1    
    92   46  114 1    
    93   47   48 2    
    94   47   49 am   BACKBONE|DICT|INTERRES
    95   49   50 1    
    96   49  115 1    
    97   50   51 1    
    98   50   52 1    
    99   50  116 1    
   100   51  117 1    
   101   51  118 1    
   102   51  119 1    
   103   52   53 2    
   104   52   54 am   BACKBONE|DICT|INTERRES
   105   54   55 1    
   106   54  120 1    
   107   55   56 1    
   108   55   57 1    
   109   55  121 1    
   110   56  122 1    
   111   56  123 1    
   112   56  124 1    
   113   57   58 2    
   114   57   59 am   BACKBONE|DICT|INTERRES
   115   59   60 1    
   116   59  125 1    
   117   60   61 1    
   118   60   62 1    
   119   60  126 1    
   120   61  127 1    
   121   61  128 1    
   122   61  129 1    
   123   62   63 2    
   124   62   64 am   BACKBONE|DICT|INTERRES
   125   64   65 1    
   126   64  130 1    
   127   65   66 1    
   128   65   69 1    
   129   65  131 1    
   130   66   67 am   BACKBONE|DICT|INTERRES
   131   66   68 2    
   132   67  132 1    
   133   67  133 1    
   134   69   70 1    
   135   69  134 1    
   136   69  135 1    
   137   70   71 1    
   138   71  136 1    
   139   71  137 1    
@<TRIPOS>SUBSTRUCTURE
     1 UNK         1 GROUP             0       ****    0 ROOT    
