@<TRIPOS>MOLECULE
3R137
137   139    1
SMALL
USER_CHARGES


@<TRIPOS>ATOM
      1 CA         26.9825   -6.3257   -2.9540 C.3       0 UNK        -0.2020 
      2 C          26.5206   -5.7156   -1.6392 C.2       0 UNK         0.4855 
      3 O          25.5434   -6.1842   -1.0555 O.2       0 UNK        -0.5197 
      4 N          27.2193   -4.6753   -1.1673 N.am      1 UNK        -0.4892 
      5 CA         26.9039   -3.9280    0.0579 C.3       1 UNK         0.0835 
      6 C6         28.1126   -3.0864    0.5471 C.3       12 UNK        -0.0855 
      7 S7         28.8328   -2.0151   -0.7487 S.3       12 UNK        -0.2931 
      8 C8         30.3976   -2.8755   -1.1004 C.3       12 UNK         0.0378 
      9 C9         30.9089   -2.5080   -2.4833 C.ar      12 UNK        -0.0802 
     10 C10        31.8194   -1.4613   -2.6514 C.ar      12 UNK        -0.0944 
     11 C11        32.2878   -1.1315   -3.9264 C.ar      12 UNK        -0.0787 
     12 C12        31.8121   -1.8351   -5.0365 C.ar      12 UNK        -0.0862 
     13 C13        30.8786   -2.8649   -4.8895 C.ar      12 UNK        -0.0733 
     14 C14        30.4626   -3.2193   -3.6004 C.ar      12 UNK        -0.0832 
     15 C15        30.3662   -3.5627   -6.1508 C.3       12 UNK         0.0240 
     16 S16        28.8162   -4.5203   -5.9856 S.3       12 UNK        -0.2522 
     17 C17        27.6020   -3.3126   -5.3509 C.3       12 UNK        -0.0967 
     18 CA         27.2154   -2.1948   -6.3577 C.3       5 UNK         0.0660 
     19 N          25.7848   -1.9113   -6.2926 N.am      5 UNK        -0.4015 
     20 C          24.9452   -1.8526   -7.3335 C.2       4 UNK         0.4946 
     21 O          25.2577   -2.1397   -8.4891 O.2       4 UNK        -0.5353 
     22 CA         23.5011   -1.3895   -7.0449 C.3       4 UNK         0.0277 
     23 CB         22.5504   -2.5972   -7.0023 C.3       4 UNK        -0.1981 
     24 N          23.3504   -0.6187   -5.8046 N.am      4 UNK        -0.4209 
     25 C          23.9708    0.5401   -5.5396 C.2       3 UNK         0.4942 
     26 O          24.7019    1.1179   -6.3409 O.2       3 UNK        -0.5208 
     27 CA         23.8205    1.1118   -4.1194 C.3       3 UNK         0.0250 
     28 CB         22.6437    2.0982   -4.0632 C.3       3 UNK        -0.1990 
     29 N          23.6671    0.1026   -3.0612 N.am      3 UNK        -0.4232 
     30 C          24.5024   -0.9183   -2.8183 C.2       2 UNK         0.4993 
     31 O          25.4934   -1.1805   -3.5090 O.2       2 UNK        -0.5286 
     32 CA         24.1406   -1.8260   -1.6393 C.3       2 UNK         0.0209 
     33 CB         22.9649   -2.7524   -1.9995 C.3       2 UNK        -0.1931 
     34 N          25.3043   -2.6362   -1.2959 N.am      2 UNK        -0.4546 
     35 C          25.6232   -3.0726   -0.0720 C.2       1 UNK         0.5154 
     36 O          24.9470   -2.8395    0.9317 O.2       1 UNK        -0.5181 
     37 C          27.9933   -0.8905   -6.0883 C.2       5 UNK         0.5014 
     38 O          28.8502   -0.5141   -6.8865 O.2       5 UNK        -0.5248 
     39 N          27.6733   -0.2130   -4.9755 N.am      6 UNK        -0.4434 
     40 CA         28.4107    0.9390   -4.4487 C.3       6 UNK         0.0363 
     41 CB         27.9293    1.2304   -3.0187 C.3       6 UNK        -0.1936 
     42 C          28.3529    2.2151   -5.3095 C.2       6 UNK         0.5081 
     43 O          29.2144    3.0770   -5.1384 O.2       6 UNK        -0.5248 
     44 N          27.3604    2.3376   -6.2009 N.am      7 UNK        -0.4718 
     45 CA         27.2512    3.4360   -7.1673 C.3       7 UNK         0.0273 
     46 CB         25.8578    4.0807   -7.0525 C.3       7 UNK        -0.1935 
     47 C          27.5330    2.9728   -8.6087 C.2       7 UNK         0.5018 
     48 O          27.3879    3.7814   -9.5277 O.2       7 UNK        -0.5186 
     49 N          27.9198    1.7030   -8.8029 N.am      8 UNK        -0.4240 
     50 CA         28.3062    1.1540  -10.1040 C.3       8 UNK         0.0235 
     51 CB         28.0585   -0.3645  -10.1066 C.3       8 UNK        -0.2000 
     52 C          29.7805    1.4593  -10.4096 C.2       8 UNK         0.4941 
     53 O          30.5425    1.8164   -9.5072 O.2       8 UNK        -0.5273 
     54 N          30.1736    1.2506  -11.6752 N.am      9 UNK        -0.4262 
     55 CA         31.5372    1.4463  -12.1903 C.3       9 UNK         0.0264 
     56 CB         31.5635    1.1344  -13.6952 C.3       9 UNK        -0.1955 
     57 C          32.6219    0.6358  -11.4546 C.2       9 UNK         0.5031 
     58 O          33.7673    1.0838  -11.3901 O.2       9 UNK        -0.5390 
     59 N          32.2319   -0.5012  -10.8596 N.am      10 UNK        -0.4204 
     60 CA         33.0475   -1.3240   -9.9607 C.3       10 UNK         0.0237 
     61 CB         32.2450   -2.5760   -9.5688 C.3       10 UNK        -0.1985 
     62 C          33.5372   -0.5891   -8.6957 C.2       10 UNK         0.4970 
     63 O          34.5426   -1.0084   -8.1217 O.2       10 UNK        -0.4914 
     64 N          32.8367    0.4787   -8.2926 N.am      11 UNK        -0.4285 
     65 CA         33.2065    1.3825   -7.1968 C.3       11 UNK         0.1007 
     66 C          33.6934    2.7749   -7.6990 C.2       11 UNK         0.5703 
     67 N          33.9572    2.9675   -8.9876 N.am      11 UNK        -0.7361 
     68 O          33.8664    3.6976   -6.9065 O.2       11 UNK        -0.4986 
     69 C69        32.0552    1.4669   -6.1540 C.3       12 UNK        -0.0947 
     70 S70        32.6305    1.5992   -4.4259 S.3       12 UNK        -0.2240 
     71 C71        33.3418   -0.0480   -4.1003 C.3       12 UNK         0.0194 
     72 H72        26.2319   -6.1646   -3.7272 H         1 UNK         0.0906 
     73 H73        27.9227   -5.8952   -3.2970 H         1 UNK         0.0906 
     74 H74        27.1275   -7.3995   -2.8391 H         1 UNK         0.0906 
     75 H75        28.0094   -4.3212   -1.6853 H         1 UNK         0.3140 
     76 H76        26.6884   -4.6635    0.8366 H         1 UNK         0.1085 
     77 H77        28.8851   -3.7540    0.9318 H         1 UNK         0.0836 
     78 H78        27.8305   -2.4616    1.3971 H         1 UNK         0.0836 
     79 H79        31.1325   -2.6175   -0.3363 H         1 UNK         0.0731 
     80 H80        30.2562   -3.9558   -1.0393 H         1 UNK         0.0731 
     81 H81        32.1739   -0.9132   -1.7890 H         1 UNK         0.1312 
     82 H82        32.1709   -1.5779   -6.0237 H         1 UNK         0.1406 
     83 H83        29.7733   -4.0379   -3.4583 H         1 UNK         0.1631 
     84 H84        31.1448   -4.2385   -6.5066 H         1 UNK         0.0717 
     85 H85        30.2225   -2.8250   -6.9405 H         1 UNK         0.0717 
     86 H86        26.7193   -3.9082   -5.1115 H         1 UNK         0.0934 
     87 H87        27.9199   -2.9122   -4.3878 H         1 UNK         0.0934 
     88 H88        27.4710   -2.5242   -7.3672 H         1 UNK         0.0739 
     89 H89        25.4349   -1.6471   -5.3770 H         1 UNK         0.3093 
     90 H90        23.2010   -0.7425   -7.8719 H         1 UNK         0.0818 
     91 H91        21.5121   -2.2830   -6.8942 H         1 UNK         0.0819 
     92 H92        22.6157   -3.1781   -7.9235 H         1 UNK         0.0819 
     93 H93        22.7877   -3.2692   -6.1764 H         1 UNK         0.0819 
     94 H94        22.7693   -1.0229   -5.0849 H         1 UNK         0.3041 
     95 H95        24.7339    1.6685   -3.9048 H         1 UNK         0.0784 
     96 H96        22.7462    2.8716   -4.8263 H         1 UNK         0.0793 
     97 H97        21.6885    1.5990   -4.2310 H         1 UNK         0.0793 
     98 H98        22.5946    2.6044   -3.0989 H         1 UNK         0.0793 
     99 H99        22.8713    0.2235   -2.4507 H         1 UNK         0.3024 
    100 H100       23.8708   -1.1927   -0.7908 H         1 UNK         0.1171 
    101 H101       22.0691   -2.1818   -2.2472 H         1 UNK         0.0786 
    102 H102       22.7079   -3.4061   -1.1656 H         1 UNK         0.0786 
    103 H103       23.1995   -3.3854   -2.8566 H         1 UNK         0.0786 
    104 H104       25.9493   -2.7947   -2.0587 H         1 UNK         0.2977 
    105 H105       26.9296   -0.5731   -4.3794 H         1 UNK         0.3127 
    106 H106       29.4617    0.6452   -4.3927 H         1 UNK         0.0770 
    107 H107       26.8816    1.5274   -2.9961 H         1 UNK         0.0814 
    108 H108       28.5083    2.0382   -2.5694 H         1 UNK         0.0814 
    109 H109       28.0436    0.3573   -2.3772 H         1 UNK         0.0814 
    110 H110       26.6360    1.6268   -6.2516 H         1 UNK         0.2983 
    111 H111       27.9888    4.2106   -6.9476 H         1 UNK         0.0947 
    112 H112       25.8058    4.9990   -7.6387 H         1 UNK         0.0806 
    113 H113       25.6219    4.3418   -6.0208 H         1 UNK         0.0806 
    114 H114       25.0729    3.4210   -7.4217 H         1 UNK         0.0806 
    115 H115       28.1177    1.1216   -7.9958 H         1 UNK         0.3000 
    116 H116       27.6879    1.6073  -10.8820 H         1 UNK         0.0850 
    117 H117       28.1930   -0.7851  -11.1036 H         1 UNK         0.0810 
    118 H118       27.0407   -0.5992   -9.7962 H         1 UNK         0.0810 
    119 H119       28.7412   -0.8914   -9.4397 H         1 UNK         0.0810 
    120 H120       29.4830    0.9496  -12.3486 H         1 UNK         0.3040 
    121 H121       31.7827    2.5018  -12.0557 H         1 UNK         0.0766 
    122 H122       32.5599    1.2953  -14.1097 H         1 UNK         0.0812 
    123 H123       30.8790    1.7786  -14.2474 H         1 UNK         0.0812 
    124 H124       31.2899    0.0983  -13.8987 H         1 UNK         0.0812 
    125 H125       31.2697   -0.7818  -10.9770 H         1 UNK         0.3205 
    126 H126       33.9338   -1.6391  -10.5151 H         1 UNK         0.0754 
    127 H127       32.8185   -3.2165   -8.8969 H         1 UNK         0.0769 
    128 H128       31.9899   -3.1746  -10.4435 H         1 UNK         0.0769 
    129 H129       31.3174   -2.3143   -9.0582 H         1 UNK         0.0769 
    130 H130       32.0266    0.7810   -8.8279 H         1 UNK         0.2981 
    131 H131       34.0863    0.9729   -6.7028 H         1 UNK         0.0541 
    132 H132       33.8604    2.2194   -9.6633 H         1 UNK         0.3459 
    133 H133       34.2797    3.8731   -9.2884 H         1 UNK         0.3459 
    134 H134       31.3978    0.6002   -6.2175 H         1 UNK         0.0612 
    135 H135       31.4072    2.3168   -6.3715 H         1 UNK         0.0612 
    136 H136       33.9466    0.0186   -3.1947 H         1 UNK         0.0624 
    137 H137       34.0343   -0.3284   -4.8938 H         1 UNK         0.0624 
@<TRIPOS>BOND
     1    1    2 1    
     2    1   72 1    
     3    1   73 1    
     4    1   74 1    
     5    2    3 2    
     6    2    4 am   BACKBONE|DICT|INTERRES
     7    4    5 1    
     8    4   75 1    
     9    5    6 1    
    10    5   35 1    
    11    5   76 1    
    12    6    7 1    
    13    6   77 1    
    14    6   78 1    
    15    7    8 1    
    16    8    9 1    
    17    8   79 1    
    18    8   80 1    
    19    9   10 ar   
    20    9   14 ar   
    21   10   11 ar   
    22   10   81 1    
    23   11   12 ar   
    24   11   71 1    
    25   12   13 ar   
    26   12   82 1    
    27   13   14 ar   
    28   13   15 1    
    29   14   83 1    
    30   15   16 1    
    31   15   84 1    
    32   15   85 1    
    33   16   17 1    
    34   17   18 1    
    35   17   86 1    
    36   17   87 1    
    37   18   19 1    
    38   18   37 1    
    39   18   88 1    
    40   19   20 am   BACKBONE|DICT|INTERRES
    41   19   89 1    
    42   20   21 2    
    43   20   22 1    
    44   22   23 1    
    45   22   24 1    
    46   22   90 1    
    47   23   91 1    
    48   23   92 1    
    49   23   93 1    
    50   24   25 am   BACKBONE|DICT|INTERRES
    51   24   94 1    
    52   25   26 2    
    53   25   27 1    
    54   27   28 1    
    55   27   29 1    
    56   27   95 1    
    57   28   96 1    
    58   28   97 1    
    59   28   98 1    
    60   29   30 am   BACKBONE|DICT|INTERRES
    61   29   99 1    
    62   30   31 2    
    63   30   32 1    
    64   32   33 1    
    65   32   34 1    
    66   32  100 1    
    67   33  101 1    
    68   33  102 1    
    69   33  103 1    
    70   34   35 am   BACKBONE|DICT|INTERRES
    71   34  104 1    
    72   35   36 2    
    73   37   38 2    
    74   37   39 am   BACKBONE|DICT|INTERRES
    75   39   40 1    
    76   39  105 1    
    77   40   41 1    
    78   40   42 1    
    79   40  106 1    
    80   41  107 1    
    81   41  108 1    
    82   41  109 1    
    83   42   43 2    
    84   42   44 am   BACKBONE|DICT|INTERRES
    85   44   45 1    
    86   44  110 1    
    87   45   46 1    
    88   45   47 1    
    89   45  111 1    
    90   46  112 1    
    91   46  113 1    
    92   46  114 1    
    93   47   48 2    
    94   47   49 am   BACKBONE|DICT|INTERRES
    95   49   50 1    
    96   49  115 1    
    97   50   51 1    
    98   50   52 1    
    99   50  116 1    
   100   51  117 1    
   101   51  118 1    
   102   51  119 1    
   103   52   53 2    
   104   52   54 am   BACKBONE|DICT|INTERRES
   105   54   55 1    
   106   54  120 1    
   107   55   56 1    
   108   55   57 1    
   109   55  121 1    
   110   56  122 1    
   111   56  123 1    
   112   56  124 1    
   113   57   58 2    
   114   57   59 am   BACKBONE|DICT|INTERRES
   115   59   60 1    
   116   59  125 1    
   117   60   61 1    
   118   60   62 1    
   119   60  126 1    
   120   61  127 1    
   121   61  128 1    
   122   61  129 1    
   123   62   63 2    
   124   62   64 am   BACKBONE|DICT|INTERRES
   125   64   65 1    
   126   64  130 1    
   127   65   66 1    
   128   65   69 1    
   129   65  131 1    
   130   66   67 am   BACKBONE|DICT|INTERRES
   131   66   68 2    
   132   67  132 1    
   133   67  133 1    
   134   69   70 1    
   135   69  134 1    
   136   69  135 1    
   137   70   71 1    
   138   71  136 1    
   139   71  137 1    
@<TRIPOS>SUBSTRUCTURE
     1 UNK         1 GROUP             0       ****    0 ROOT    
