@<TRIPOS>MOLECULE
3R137
137   139    1
SMALL
USER_CHARGES


@<TRIPOS>ATOM
      1 CA         29.2719    0.4673   -1.6606 C.3       0 UNK        -0.2020 
      2 C          28.4690   -0.6985   -2.2147 C.2       0 UNK         0.4855 
      3 O          27.8110   -0.5500   -3.2457 O.2       0 UNK        -0.5197 
      4 N          28.5231   -1.8498   -1.5296 N.am      1 UNK        -0.4892 
      5 CA         27.9135   -3.1302   -1.9136 C.3       1 UNK         0.0835 
      6 C6         28.2111   -4.2703   -0.8938 C.3       12 UNK        -0.0855 
      7 S7         29.8960   -4.2553   -0.1812 S.3       12 UNK        -0.2931 
      8 C8         30.7421   -5.5563   -1.1288 C.3       12 UNK         0.0378 
      9 C9         31.0949   -5.0729   -2.5248 C.ar      12 UNK        -0.0802 
     10 C10        32.1899   -4.2243   -2.7152 C.ar      12 UNK        -0.0944 
     11 C11        32.5190   -3.7505   -3.9888 C.ar      12 UNK        -0.0787 
     12 C12        31.7437   -4.1615   -5.0808 C.ar      12 UNK        -0.0862 
     13 C13        30.6289   -4.9834   -4.8981 C.ar      12 UNK        -0.0733 
     14 C14        30.3173   -5.4521   -3.6206 C.ar      12 UNK        -0.0832 
     15 C15        29.7245   -5.3109   -6.0750 C.3       12 UNK         0.0240 
     16 S16        28.2059   -4.3063   -6.0240 S.3       12 UNK        -0.2522 
     17 C17        28.8799   -2.6076   -5.9906 C.3       12 UNK        -0.0967 
     18 CA         27.9985   -1.6123   -6.7698 C.3       5 UNK         0.0660 
     19 N          26.6177   -1.5720   -6.2808 N.am      5 UNK        -0.4015 
     20 C          25.5940   -1.1011   -7.0044 C.2       4 UNK         0.4946 
     21 O          25.7137   -0.6415   -8.1393 O.2       4 UNK        -0.5353 
     22 CA         24.2100   -1.1030   -6.3424 C.3       4 UNK         0.0277 
     23 CB         23.6073   -2.5167   -6.3431 C.3       4 UNK        -0.1981 
     24 N          24.2328   -0.5815   -4.9773 N.am      4 UNK        -0.4209 
     25 C          24.6285    0.6450   -4.6146 C.2       3 UNK         0.4942 
     26 O          25.0160    1.4932   -5.4174 O.2       3 UNK        -0.5208 
     27 CA         24.6217    0.9960   -3.1145 C.3       3 UNK         0.0250 
     28 CB         23.4287    1.9062   -2.7641 C.3       3 UNK        -0.1990 
     29 N          24.7081   -0.1558   -2.2036 N.am      3 UNK        -0.4232 
     30 C          23.8187   -1.1367   -1.9858 C.2       2 UNK         0.4993 
     31 O          22.7245   -1.2070   -2.5465 O.2       2 UNK        -0.5286 
     32 CA         24.2592   -2.2478   -1.0147 C.3       2 UNK         0.0209 
     33 CB         23.4377   -3.5461   -1.1730 C.3       2 UNK        -0.1931 
     34 N          25.7010   -2.5254   -1.0877 N.am      2 UNK        -0.4546 
     35 C          26.3935   -2.9982   -2.1386 C.2       1 UNK         0.5154 
     36 O          25.9026   -3.2745   -3.2343 O.2       1 UNK        -0.5181 
     37 C          28.6364   -0.2099   -6.8073 C.2       5 UNK         0.5014 
     38 O          29.4377    0.0599   -7.7036 O.2       5 UNK        -0.5248 
     39 N          28.2577    0.6766   -5.8754 N.am      6 UNK        -0.4434 
     40 CA         28.6243    2.0951   -5.9015 C.3       6 UNK         0.0363 
     41 CB         28.2039    2.7830   -4.5949 C.3       6 UNK        -0.1936 
     42 C          28.0481    2.8355   -7.1197 C.2       6 UNK         0.5081 
     43 O          28.7382    3.6776   -7.6908 O.2       6 UNK        -0.5248 
     44 N          26.8142    2.4972   -7.5121 N.am      7 UNK        -0.4718 
     45 CA         26.1638    3.0238   -8.7101 C.3       7 UNK         0.0273 
     46 CB         24.6466    2.7898   -8.6176 C.3       7 UNK        -0.1935 
     47 C          26.7390    2.4226  -10.0038 C.2       7 UNK         0.5018 
     48 O          27.0981    3.1753  -10.9098 O.2       7 UNK        -0.5186 
     49 N          26.7877    1.0854  -10.0822 N.am      8 UNK        -0.4240 
     50 CA         27.1139    0.3516  -11.3068 C.3       8 UNK         0.0235 
     51 CB         26.5222   -1.0658  -11.2292 C.3       8 UNK        -0.2000 
     52 C          28.6155    0.2793  -11.6181 C.2       8 UNK         0.4941 
     53 O          28.9875    0.4281  -12.7831 O.2       8 UNK        -0.5273 
     54 N          29.4429    0.0117  -10.5993 N.am      9 UNK        -0.4262 
     55 CA         30.8687   -0.2996  -10.7543 C.3       9 UNK         0.0264 
     56 CB         31.1431   -1.6697  -10.1050 C.3       9 UNK        -0.1955 
     57 C          31.7926    0.7766  -10.1614 C.2       9 UNK         0.5031 
     58 O          33.0110    0.6220  -10.2576 O.2       9 UNK        -0.5390 
     59 N          31.2193    1.8251   -9.5489 N.am      10 UNK        -0.4204 
     60 CA         31.9031    2.8978   -8.8111 C.3       10 UNK         0.0237 
     61 CB         32.7873    3.7480   -9.7499 C.3       10 UNK        -0.1985 
     62 C          32.6610    2.3856   -7.5678 C.2       10 UNK         0.4970 
     63 O          33.6716    2.9757   -7.1825 O.2       10 UNK        -0.4914 
     64 N          32.1618    1.2991   -6.9617 N.am      11 UNK        -0.4285 
     65 CA         32.7839    0.6017   -5.8238 C.3       11 UNK         0.1007 
     66 C          32.5571    1.2628   -4.4301 C.2       11 UNK         0.5703 
     67 N          31.9456    2.4375   -4.3370 N.am      11 UNK        -0.7361 
     68 O          32.9532    0.7065   -3.4095 O.2       11 UNK        -0.4986 
     69 C69        32.4260   -0.9136   -5.8415 C.3       12 UNK        -0.0947 
     70 S70        33.9063   -1.9791   -5.7472 S.3       12 UNK        -0.2240 
     71 C71        33.7039   -2.7895   -4.1215 C.3       12 UNK         0.0194 
     72 H72        29.7753    0.2106   -0.7288 H         1 UNK         0.0906 
     73 H73        30.0315    0.7709   -2.3805 H         1 UNK         0.0906 
     74 H74        28.6179    1.3174   -1.4690 H         1 UNK         0.0906 
     75 H75        29.1031   -1.9029   -0.7031 H         1 UNK         0.3140 
     76 H76        28.3585   -3.4105   -2.8702 H         1 UNK         0.1085 
     77 H77        27.5341   -4.2180   -0.0390 H         1 UNK         0.0836 
     78 H78        28.0174   -5.2404   -1.3549 H         1 UNK         0.0836 
     79 H79        31.6559   -5.8370   -0.6029 H         1 UNK         0.0731 
     80 H80        30.1246   -6.4552   -1.1652 H         1 UNK         0.0731 
     81 H81        32.7783   -3.9172   -1.8610 H         1 UNK         0.1312 
     82 H82        31.9739   -3.8165   -6.0779 H         1 UNK         0.1406 
     83 H83        29.4518   -6.0853   -3.4791 H         1 UNK         0.1631 
     84 H84        29.4565   -6.3681   -6.0529 H         1 UNK         0.0717 
     85 H85        30.2384   -5.1421   -7.0227 H         1 UNK         0.0717 
     86 H86        29.8774   -2.6190   -6.4310 H         1 UNK         0.0934 
     87 H87        29.0041   -2.2981   -4.9518 H         1 UNK         0.0934 
     88 H88        27.9661   -1.9600   -7.8051 H         1 UNK         0.0739 
     89 H89        26.4489   -1.9308   -5.3495 H         1 UNK         0.3093 
     90 H90        23.5615   -0.4517   -6.9319 H         1 UNK         0.0818 
     91 H91        22.5857   -2.5119   -5.9624 H         1 UNK         0.0819 
     92 H92        23.5744   -2.9268   -7.3535 H         1 UNK         0.0819 
     93 H93        24.1897   -3.2054   -5.7288 H         1 UNK         0.0819 
     94 H94        23.8725   -1.1844   -4.2467 H         1 UNK         0.3041 
     95 H95        25.5332    1.5690   -2.9381 H         1 UNK         0.0784 
     96 H96        23.4429    2.8135   -3.3695 H         1 UNK         0.0793 
     97 H97        22.4725    1.4143   -2.9443 H         1 UNK         0.0793 
     98 H98        23.4574    2.2138   -1.7189 H         1 UNK         0.0793 
     99 H99        25.6020   -0.2533   -1.7428 H         1 UNK         0.3024 
    100 H100       24.0670   -1.8593   -0.0130 H         1 UNK         0.1171 
    101 H101       23.7658   -4.3117   -0.4700 H         1 UNK         0.0786 
    102 H102       23.5176   -3.9579   -2.1796 H         1 UNK         0.0786 
    103 H103       22.3794   -3.3648   -0.9811 H         1 UNK         0.0786 
    104 H104       26.2271   -2.3035   -0.2531 H         1 UNK         0.2977 
    105 H105       27.6730    0.3605   -5.1089 H         1 UNK         0.3127 
    106 H106       29.7095    2.1522   -5.9737 H         1 UNK         0.0770 
    107 H107       27.1254    2.7515   -4.4459 H         1 UNK         0.0814 
    108 H108       28.5001    3.8328   -4.5966 H         1 UNK         0.0814 
    109 H109       28.6782    2.3177   -3.7336 H         1 UNK         0.0814 
    110 H110       26.2783    1.8520   -6.9387 H         1 UNK         0.2983 
    111 H111       26.3324    4.1026   -8.7445 H         1 UNK         0.0947 
    112 H112       24.1357    3.1837   -9.4971 H         1 UNK         0.0806 
    113 H113       24.2238    3.2886   -7.7452 H         1 UNK         0.0806 
    114 H114       24.4009    1.7300   -8.5431 H         1 UNK         0.0806 
    115 H115       26.4449    0.5317   -9.2968 H         1 UNK         0.3000 
    116 H116       26.6321    0.8615  -12.1444 H         1 UNK         0.0850 
    117 H117       26.7105   -1.6199  -12.1498 H         1 UNK         0.0810 
    118 H118       25.4422   -1.0367  -11.0833 H         1 UNK         0.0810 
    119 H119       26.9534   -1.6402  -10.4082 H         1 UNK         0.0810 
    120 H120       29.0765   -0.0575   -9.6546 H         1 UNK         0.3040 
    121 H121       31.1300   -0.3782  -11.8115 H         1 UNK         0.0766 
    122 H122       32.1847   -1.9658  -10.2364 H         1 UNK         0.0812 
    123 H123       30.9420   -1.6612   -9.0340 H         1 UNK         0.0812 
    124 H124       30.5284   -2.4499  -10.5539 H         1 UNK         0.0812 
    125 H125       30.2094    1.8446   -9.5118 H         1 UNK         0.3205 
    126 H126       31.1253    3.5573   -8.4318 H         1 UNK         0.0754 
    127 H127       33.1628    4.6340   -9.2364 H         1 UNK         0.0769 
    128 H128       32.2257    4.0932  -10.6179 H         1 UNK         0.0769 
    129 H129       33.6536    3.1920  -10.1093 H         1 UNK         0.0769 
    130 H130       31.3087    0.8877   -7.3241 H         1 UNK         0.2981 
    131 H131       33.8606    0.6899   -5.9799 H         1 UNK         0.0541 
    132 H132       31.6728    2.9391   -5.1650 H         1 UNK         0.3459 
    133 H133       31.8241    2.8548   -3.4284 H         1 UNK         0.3459 
    134 H134       31.9243   -1.1822   -6.7721 H         1 UNK         0.0612 
    135 H135       31.7171   -1.1744   -5.0531 H         1 UNK         0.0612 
    136 H136       34.6189   -3.3419   -3.9044 H         1 UNK         0.0624 
    137 H137       33.6243   -2.0121   -3.3603 H         1 UNK         0.0624 
@<TRIPOS>BOND
     1    1    2 1    
     2    1   72 1    
     3    1   73 1    
     4    1   74 1    
     5    2    3 2    
     6    2    4 am   BACKBONE|DICT|INTERRES
     7    4    5 1    
     8    4   75 1    
     9    5    6 1    
    10    5   35 1    
    11    5   76 1    
    12    6    7 1    
    13    6   77 1    
    14    6   78 1    
    15    7    8 1    
    16    8    9 1    
    17    8   79 1    
    18    8   80 1    
    19    9   10 ar   
    20    9   14 ar   
    21   10   11 ar   
    22   10   81 1    
    23   11   12 ar   
    24   11   71 1    
    25   12   13 ar   
    26   12   82 1    
    27   13   14 ar   
    28   13   15 1    
    29   14   83 1    
    30   15   16 1    
    31   15   84 1    
    32   15   85 1    
    33   16   17 1    
    34   17   18 1    
    35   17   86 1    
    36   17   87 1    
    37   18   19 1    
    38   18   37 1    
    39   18   88 1    
    40   19   20 am   BACKBONE|DICT|INTERRES
    41   19   89 1    
    42   20   21 2    
    43   20   22 1    
    44   22   23 1    
    45   22   24 1    
    46   22   90 1    
    47   23   91 1    
    48   23   92 1    
    49   23   93 1    
    50   24   25 am   BACKBONE|DICT|INTERRES
    51   24   94 1    
    52   25   26 2    
    53   25   27 1    
    54   27   28 1    
    55   27   29 1    
    56   27   95 1    
    57   28   96 1    
    58   28   97 1    
    59   28   98 1    
    60   29   30 am   BACKBONE|DICT|INTERRES
    61   29   99 1    
    62   30   31 2    
    63   30   32 1    
    64   32   33 1    
    65   32   34 1    
    66   32  100 1    
    67   33  101 1    
    68   33  102 1    
    69   33  103 1    
    70   34   35 am   BACKBONE|DICT|INTERRES
    71   34  104 1    
    72   35   36 2    
    73   37   38 2    
    74   37   39 am   BACKBONE|DICT|INTERRES
    75   39   40 1    
    76   39  105 1    
    77   40   41 1    
    78   40   42 1    
    79   40  106 1    
    80   41  107 1    
    81   41  108 1    
    82   41  109 1    
    83   42   43 2    
    84   42   44 am   BACKBONE|DICT|INTERRES
    85   44   45 1    
    86   44  110 1    
    87   45   46 1    
    88   45   47 1    
    89   45  111 1    
    90   46  112 1    
    91   46  113 1    
    92   46  114 1    
    93   47   48 2    
    94   47   49 am   BACKBONE|DICT|INTERRES
    95   49   50 1    
    96   49  115 1    
    97   50   51 1    
    98   50   52 1    
    99   50  116 1    
   100   51  117 1    
   101   51  118 1    
   102   51  119 1    
   103   52   53 2    
   104   52   54 am   BACKBONE|DICT|INTERRES
   105   54   55 1    
   106   54  120 1    
   107   55   56 1    
   108   55   57 1    
   109   55  121 1    
   110   56  122 1    
   111   56  123 1    
   112   56  124 1    
   113   57   58 2    
   114   57   59 am   BACKBONE|DICT|INTERRES
   115   59   60 1    
   116   59  125 1    
   117   60   61 1    
   118   60   62 1    
   119   60  126 1    
   120   61  127 1    
   121   61  128 1    
   122   61  129 1    
   123   62   63 2    
   124   62   64 am   BACKBONE|DICT|INTERRES
   125   64   65 1    
   126   64  130 1    
   127   65   66 1    
   128   65   69 1    
   129   65  131 1    
   130   66   67 am   BACKBONE|DICT|INTERRES
   131   66   68 2    
   132   67  132 1    
   133   67  133 1    
   134   69   70 1    
   135   69  134 1    
   136   69  135 1    
   137   70   71 1    
   138   71  136 1    
   139   71  137 1    
@<TRIPOS>SUBSTRUCTURE
     1 UNK         1 GROUP             0       ****    0 ROOT    
