@<TRIPOS>MOLECULE
3R137
137   139    1
SMALL
USER_CHARGES


@<TRIPOS>ATOM
      1 CA         28.0870   -6.2141   -1.5972 C.3       0 UNK        -0.2020 
      2 C          27.4892   -5.2401   -0.5932 C.2       0 UNK         0.4855 
      3 O          27.1750   -5.6337    0.5299 O.2       0 UNK        -0.5197 
      4 N          27.3171   -3.9759   -0.9990 N.am      1 UNK        -0.4892 
      5 CA         26.7305   -2.9017   -0.1818 C.3       1 UNK         0.0835 
      6 C6         27.5132   -1.5666   -0.3197 C.3       12 UNK        -0.0855 
      7 S7         29.2020   -1.6818    0.3681 S.3       12 UNK        -0.2931 
      8 C8         30.1205   -0.4848   -0.6694 C.3       12 UNK         0.0378 
      9 C9         30.4985   -0.9563   -2.0772 C.ar      12 UNK        -0.0802 
     10 C10        31.3296   -0.1421   -2.8544 C.ar      12 UNK        -0.0944 
     11 C11        31.7022   -0.5254   -4.1470 C.ar      12 UNK        -0.0787 
     12 C12        31.2177   -1.7233   -4.6797 C.ar      12 UNK        -0.0862 
     13 C13        30.3920   -2.5495   -3.9158 C.ar      12 UNK        -0.0733 
     14 C14        30.0510   -2.1673   -2.6179 C.ar      12 UNK        -0.0832 
     15 C15        29.8763   -3.8679   -4.4662 C.3       12 UNK         0.0240 
     16 S16        28.1650   -3.7073   -5.0672 S.3       12 UNK        -0.2522 
     17 C17        28.4282   -3.2989   -6.8300 C.3       12 UNK        -0.0967 
     18 CA         27.7214   -2.0103   -7.3166 C.3       5 UNK         0.0660 
     19 N          26.2935   -1.9889   -6.9769 N.am      5 UNK        -0.4015 
     20 C          25.3936   -1.2016   -7.5793 C.2       4 UNK         0.4946 
     21 O          25.6795   -0.3848   -8.4532 O.2       4 UNK        -0.5353 
     22 CA         23.9325   -1.3263   -7.1227 C.3       4 UNK         0.0277 
     23 CB         23.3265   -2.6631   -7.5809 C.3       4 UNK        -0.1981 
     24 N          23.7112   -1.1553   -5.6837 N.am      4 UNK        -0.4209 
     25 C          24.1293   -0.1366   -4.9225 C.2       3 UNK         0.4942 
     26 O          24.9306    0.7160   -5.2990 O.2       3 UNK        -0.5208 
     27 CA         23.5418   -0.0210   -3.5044 C.3       3 UNK         0.0250 
     28 CB         22.1179    0.5654   -3.5527 C.3       3 UNK        -0.1990 
     29 N          23.5835   -1.2454   -2.6943 N.am      3 UNK        -0.4232 
     30 C          22.9990   -2.4348   -2.8947 C.2       2 UNK         0.4993 
     31 O          22.2968   -2.6945   -3.8740 O.2       2 UNK        -0.5286 
     32 CA         23.2651   -3.5208   -1.8295 C.3       2 UNK         0.0209 
     33 CB         22.8719   -4.9289   -2.3157 C.3       2 UNK        -0.1931 
     34 N          24.6628   -3.5535   -1.3801 N.am      2 UNK        -0.4546 
     35 C          25.2329   -2.7082   -0.5078 C.2       1 UNK         0.5154 
     36 O          24.6164   -1.7732    0.0049 O.2       1 UNK        -0.5181 
     37 C          28.4692   -0.7242   -6.9061 C.2       5 UNK         0.5014 
     38 O          29.4329   -0.3491   -7.5797 O.2       5 UNK        -0.5248 
     39 N          27.9983   -0.0519   -5.8465 N.am      6 UNK        -0.4434 
     40 CA         28.5024    1.2507   -5.4152 C.3       6 UNK         0.0363 
     41 CB         28.0782    1.5224   -3.9628 C.3       6 UNK        -0.1936 
     42 C          28.0276    2.3686   -6.3569 C.2       6 UNK         0.5081 
     43 O          28.8408    3.1934   -6.7708 O.2       6 UNK        -0.5248 
     44 N          26.7353    2.3513   -6.7151 N.am      7 UNK        -0.4718 
     45 CA         26.1019    3.2845   -7.6524 C.3       7 UNK         0.0273 
     46 CB         24.5797    3.0718   -7.6375 C.3       7 UNK        -0.1935 
     47 C          26.6535    3.1690   -9.0831 C.2       7 UNK         0.5018 
     48 O          26.8672    4.1927   -9.7332 O.2       7 UNK        -0.5186 
     49 N          26.9111    1.9324   -9.5323 N.am      8 UNK        -0.4240 
     50 CA         27.5765    1.6224  -10.8017 C.3       8 UNK         0.0235 
     51 CB         27.3462    0.1406  -11.1421 C.3       8 UNK        -0.2000 
     52 C          29.0849    1.9361  -10.8012 C.2       8 UNK         0.4941 
     53 O          29.6866    1.9397  -11.8759 O.2       8 UNK        -0.5273 
     54 N          29.6634    2.1783   -9.6142 N.am      9 UNK        -0.4262 
     55 CA         31.0752    2.4585   -9.3445 C.3       9 UNK         0.0264 
     56 CB         31.4921    3.8187   -9.9429 C.3       9 UNK        -0.1955 
     57 C          31.9941    1.3004   -9.7703 C.2       9 UNK         0.5031 
     58 O          33.0128    1.5277  -10.4273 O.2       9 UNK        -0.5390 
     59 N          31.6384    0.0734   -9.3569 N.am      10 UNK        -0.4204 
     60 CA         32.3904   -1.1598   -9.6358 C.3       10 UNK         0.0237 
     61 CB         31.5897   -2.3663   -9.1217 C.3       10 UNK        -0.1985 
     62 C          33.8185   -1.1727   -9.0531 C.2       10 UNK         0.4970 
     63 O          34.6624   -1.9314   -9.5311 O.2       10 UNK        -0.4914 
     64 N          34.0593   -0.3190   -8.0521 N.am      11 UNK        -0.4285 
     65 CA         35.3708   -0.0137   -7.4687 C.3       11 UNK         0.1007 
     66 C          36.3154    0.7956   -8.4069 C.2       11 UNK         0.5703 
     67 N          35.8418    1.3792   -9.5033 N.am      11 UNK        -0.7361 
     68 O          37.5098    0.8895   -8.1344 O.2       11 UNK        -0.4986 
     69 C69        35.2132    0.6991   -6.0991 C.3       12 UNK        -0.0947 
     70 S70        34.3399   -0.3299   -4.8742 S.3       12 UNK        -0.2240 
     71 C71        32.6483    0.3365   -4.9644 C.3       12 UNK         0.0194 
     72 H72        28.0102   -5.8429   -2.6187 H         1 UNK         0.0906 
     73 H73        27.5668   -7.1705   -1.5510 H         1 UNK         0.0906 
     74 H74        29.1388   -6.3874   -1.3715 H         1 UNK         0.0906 
     75 H75        27.5640   -3.7210   -1.9446 H         1 UNK         0.3140 
     76 H76        26.7607   -3.1861    0.8726 H         1 UNK         0.1085 
     77 H77        27.0105   -0.7608    0.2190 H         1 UNK         0.0836 
     78 H78        27.5546   -1.2507   -1.3638 H         1 UNK         0.0836 
     79 H79        29.5396    0.4356   -0.7457 H         1 UNK         0.0731 
     80 H80        31.0369   -0.2248   -0.1376 H         1 UNK         0.0731 
     81 H81        31.6998    0.7887   -2.4462 H         1 UNK         0.1312 
     82 H82        31.5015   -2.0188   -5.6796 H         1 UNK         0.1406 
     83 H83        29.4350   -2.8303   -2.0354 H         1 UNK         0.1631 
     84 H84        29.9014   -4.6211   -3.6777 H         1 UNK         0.0717 
     85 H85        30.5288   -4.2466   -5.2542 H         1 UNK         0.0717 
     86 H86        29.4943   -3.2534   -7.0545 H         1 UNK         0.0934 
     87 H87        28.0557   -4.1451   -7.4096 H         1 UNK         0.0934 
     88 H88        27.7764   -2.0317   -8.4074 H         1 UNK         0.0739 
     89 H89        25.9923   -2.6256   -6.2531 H         1 UNK         0.3093 
     90 H90        23.3800   -0.5250   -7.6174 H         1 UNK         0.0818 
     91 H91        22.2521   -2.6926   -7.3983 H         1 UNK         0.0819 
     92 H92        23.4754   -2.8155   -8.6510 H         1 UNK         0.0819 
     93 H93        23.7748   -3.5119   -7.0631 H         1 UNK         0.0819 
     94 H94        23.0744   -1.8130   -5.2354 H         1 UNK         0.3041 
     95 H95        24.1684    0.6975   -2.9731 H         1 UNK         0.0784 
     96 H96        22.1049    1.5130   -4.0931 H         1 UNK         0.0793 
     97 H97        21.4166   -0.1029   -4.0535 H         1 UNK         0.0793 
     98 H98        21.7363    0.7598   -2.5503 H         1 UNK         0.0793 
     99 H99        24.1119   -1.1648   -1.8312 H         1 UNK         0.3024 
    100 H100       22.6316   -3.2761   -0.9737 H         1 UNK         0.1171 
    101 H101       21.8159   -4.9710   -2.5863 H         1 UNK         0.0786 
    102 H102       23.0321   -5.6767   -1.5387 H         1 UNK         0.0786 
    103 H103       23.4461   -5.2273   -3.1937 H         1 UNK         0.0786 
    104 H104       25.2431   -4.2817   -1.7699 H         1 UNK         0.2977 
    105 H105       27.1736   -0.3999   -5.3796 H         1 UNK         0.3127 
    106 H106       29.5939    1.2240   -5.4464 H         1 UNK         0.0770 
    107 H107       26.9957    1.5967   -3.8581 H         1 UNK         0.0814 
    108 H108       28.5049    2.4600   -3.6046 H         1 UNK         0.0814 
    109 H109       28.4248    0.7332   -3.2962 H         1 UNK         0.0814 
    110 H110       26.1241    1.6535   -6.2923 H         1 UNK         0.2983 
    111 H111       26.3098    4.2975   -7.3013 H         1 UNK         0.0947 
    112 H112       24.0800    3.7666   -8.3137 H         1 UNK         0.0806 
    113 H113       24.1674    3.2341   -6.6414 H         1 UNK         0.0806 
    114 H114       24.3111    2.0611   -7.9475 H         1 UNK         0.0806 
    115 H115       26.6145    1.1370   -8.9685 H         1 UNK         0.3000 
    116 H116       27.1176    2.2301  -11.5844 H         1 UNK         0.0850 
    117 H117       27.7860   -0.1140  -12.1073 H         1 UNK         0.0810 
    118 H118       26.2830   -0.0935  -11.1991 H         1 UNK         0.0810 
    119 H119       27.7948   -0.5158  -10.3956 H         1 UNK         0.0810 
    120 H120       29.0714    2.1552   -8.7934 H         1 UNK         0.3040 
    121 H121       31.1668    2.5365   -8.2601 H         1 UNK         0.0766 
    122 H122       31.4674    3.8081  -11.0330 H         1 UNK         0.0812 
    123 H123       30.8362    4.6189   -9.5997 H         1 UNK         0.0812 
    124 H124       32.5077    4.0813   -9.6442 H         1 UNK         0.0812 
    125 H125       30.7935   -0.0273   -8.7936 H         1 UNK         0.3205 
    126 H126       32.4838   -1.2463  -10.7202 H         1 UNK         0.0754 
    127 H127       32.0872   -3.3036   -9.3746 H         1 UNK         0.0769 
    128 H128       30.5922   -2.3992   -9.5606 H         1 UNK         0.0769 
    129 H129       31.4800   -2.3369   -8.0382 H         1 UNK         0.0769 
    130 H130       33.2972    0.2597   -7.7398 H         1 UNK         0.2981 
    131 H131       35.8737   -0.9664   -7.2920 H         1 UNK         0.0541 
    132 H132       34.8596    1.3229   -9.7535 H         1 UNK         0.3459 
    133 H133       36.4756    1.8927  -10.0943 H         1 UNK         0.3459 
    134 H134       34.6968    1.6540   -6.2134 H         1 UNK         0.0612 
    135 H135       36.1921    0.9328   -5.6763 H         1 UNK         0.0612 
    136 H136       32.6433    1.3663   -4.6039 H         1 UNK         0.0624 
    137 H137       32.3068    0.3660   -5.9993 H         1 UNK         0.0624 
@<TRIPOS>BOND
     1    1    2 1    
     2    1   72 1    
     3    1   73 1    
     4    1   74 1    
     5    2    3 2    
     6    2    4 am   BACKBONE|DICT|INTERRES
     7    4    5 1    
     8    4   75 1    
     9    5    6 1    
    10    5   35 1    
    11    5   76 1    
    12    6    7 1    
    13    6   77 1    
    14    6   78 1    
    15    7    8 1    
    16    8    9 1    
    17    8   79 1    
    18    8   80 1    
    19    9   10 ar   
    20    9   14 ar   
    21   10   11 ar   
    22   10   81 1    
    23   11   12 ar   
    24   11   71 1    
    25   12   13 ar   
    26   12   82 1    
    27   13   14 ar   
    28   13   15 1    
    29   14   83 1    
    30   15   16 1    
    31   15   84 1    
    32   15   85 1    
    33   16   17 1    
    34   17   18 1    
    35   17   86 1    
    36   17   87 1    
    37   18   19 1    
    38   18   37 1    
    39   18   88 1    
    40   19   20 am   BACKBONE|DICT|INTERRES
    41   19   89 1    
    42   20   21 2    
    43   20   22 1    
    44   22   23 1    
    45   22   24 1    
    46   22   90 1    
    47   23   91 1    
    48   23   92 1    
    49   23   93 1    
    50   24   25 am   BACKBONE|DICT|INTERRES
    51   24   94 1    
    52   25   26 2    
    53   25   27 1    
    54   27   28 1    
    55   27   29 1    
    56   27   95 1    
    57   28   96 1    
    58   28   97 1    
    59   28   98 1    
    60   29   30 am   BACKBONE|DICT|INTERRES
    61   29   99 1    
    62   30   31 2    
    63   30   32 1    
    64   32   33 1    
    65   32   34 1    
    66   32  100 1    
    67   33  101 1    
    68   33  102 1    
    69   33  103 1    
    70   34   35 am   BACKBONE|DICT|INTERRES
    71   34  104 1    
    72   35   36 2    
    73   37   38 2    
    74   37   39 am   BACKBONE|DICT|INTERRES
    75   39   40 1    
    76   39  105 1    
    77   40   41 1    
    78   40   42 1    
    79   40  106 1    
    80   41  107 1    
    81   41  108 1    
    82   41  109 1    
    83   42   43 2    
    84   42   44 am   BACKBONE|DICT|INTERRES
    85   44   45 1    
    86   44  110 1    
    87   45   46 1    
    88   45   47 1    
    89   45  111 1    
    90   46  112 1    
    91   46  113 1    
    92   46  114 1    
    93   47   48 2    
    94   47   49 am   BACKBONE|DICT|INTERRES
    95   49   50 1    
    96   49  115 1    
    97   50   51 1    
    98   50   52 1    
    99   50  116 1    
   100   51  117 1    
   101   51  118 1    
   102   51  119 1    
   103   52   53 2    
   104   52   54 am   BACKBONE|DICT|INTERRES
   105   54   55 1    
   106   54  120 1    
   107   55   56 1    
   108   55   57 1    
   109   55  121 1    
   110   56  122 1    
   111   56  123 1    
   112   56  124 1    
   113   57   58 2    
   114   57   59 am   BACKBONE|DICT|INTERRES
   115   59   60 1    
   116   59  125 1    
   117   60   61 1    
   118   60   62 1    
   119   60  126 1    
   120   61  127 1    
   121   61  128 1    
   122   61  129 1    
   123   62   63 2    
   124   62   64 am   BACKBONE|DICT|INTERRES
   125   64   65 1    
   126   64  130 1    
   127   65   66 1    
   128   65   69 1    
   129   65  131 1    
   130   66   67 am   BACKBONE|DICT|INTERRES
   131   66   68 2    
   132   67  132 1    
   133   67  133 1    
   134   69   70 1    
   135   69  134 1    
   136   69  135 1    
   137   70   71 1    
   138   71  136 1    
   139   71  137 1    
@<TRIPOS>SUBSTRUCTURE
     1 UNK         1 GROUP             0       ****    0 ROOT    
