@<TRIPOS>MOLECULE
3R137
137   139    1
SMALL
USER_CHARGES


@<TRIPOS>ATOM
      1 CA         23.1712   -5.6163   -2.9426 C.3       0 UNK        -0.2020 
      2 C          24.2730   -5.2892   -1.9456 C.2       0 UNK         0.4855 
      3 O          24.1661   -5.6468   -0.7723 O.2       0 UNK        -0.5197 
      4 N          25.3281   -4.6096   -2.4019 N.am      1 UNK        -0.4892 
      5 CA         26.4641   -4.1557   -1.6048 C.3       1 UNK         0.0835 
      6 C6         27.5101   -5.2848   -1.4051 C.3       12 UNK        -0.0855 
      7 S7         28.8534   -4.8657   -0.2335 S.3       12 UNK        -0.2931 
      8 C8         30.3376   -5.5285   -1.0618 C.3       12 UNK         0.0378 
      9 C9         30.7604   -4.7214   -2.2848 C.ar      12 UNK        -0.0802 
     10 C10        31.6248   -3.6258   -2.1564 C.ar      12 UNK        -0.0944 
     11 C11        32.0681   -2.9338   -3.2910 C.ar      12 UNK        -0.0787 
     12 C12        31.6298   -3.3374   -4.5536 C.ar      12 UNK        -0.0862 
     13 C13        30.7295   -4.3947   -4.6895 C.ar      12 UNK        -0.0733 
     14 C14        30.3219   -5.1011   -3.5572 C.ar      12 UNK        -0.0832 
     15 C15        30.1655   -4.7471   -6.0557 C.3       12 UNK         0.0240 
     16 S16        28.5326   -3.9758   -6.2925 S.3       12 UNK        -0.2522 
     17 C17        28.9625   -2.2072   -6.1750 C.3       12 UNK        -0.0967 
     18 CA         27.8952   -1.3148   -6.8382 C.3       5 UNK         0.0660 
     19 N          26.6677   -1.2610   -6.0429 N.am      5 UNK        -0.4015 
     20 C          25.4994   -0.7779   -6.4844 C.2       4 UNK         0.4946 
     21 O          25.3382   -0.2959   -7.6056 O.2       4 UNK        -0.5353 
     22 CA         24.3225   -0.8217   -5.5005 C.3       4 UNK         0.0277 
     23 CB         23.7512   -2.2454   -5.3894 C.3       4 UNK        -0.1981 
     24 N          24.7258   -0.3425   -4.1783 N.am      4 UNK        -0.4209 
     25 C          24.8315    0.9531   -3.8502 C.2       3 UNK         0.4942 
     26 O          24.5296    1.8787   -4.6043 O.2       3 UNK        -0.5208 
     27 CA         25.3834    1.2759   -2.4491 C.3       3 UNK         0.0250 
     28 CB         24.2421    1.3378   -1.4214 C.3       3 UNK        -0.1990 
     29 N          26.4075    0.3341   -1.9848 N.am      3 UNK        -0.4232 
     30 C          27.5911    0.1462   -2.5855 C.2       2 UNK         0.4993 
     31 O          27.9398    0.7367   -3.6028 O.2       2 UNK        -0.5286 
     32 CA         28.5207   -0.9190   -1.9895 C.3       2 UNK         0.0209 
     33 CB         29.3227   -0.3369   -0.8154 C.3       2 UNK        -0.1931 
     34 N          27.8288   -2.1302   -1.5479 N.am      2 UNK        -0.4546 
     35 C          27.0282   -2.9001   -2.2954 C.2       1 UNK         0.5154 
     36 O          26.7076   -2.6354   -3.4608 O.2       1 UNK        -0.5181 
     37 C          28.4563    0.0788   -7.1857 C.2       5 UNK         0.5014 
     38 O          29.0323    0.2279   -8.2628 O.2       5 UNK        -0.5248 
     39 N          28.2704    1.0865   -6.3215 N.am      6 UNK        -0.4434 
     40 CA         28.6362    2.4823   -6.5862 C.3       6 UNK         0.0363 
     41 CB         28.4246    3.3338   -5.3257 C.3       6 UNK        -0.1936 
     42 C          27.8848    3.0914   -7.7809 C.2       6 UNK         0.5081 
     43 O          28.4895    3.8378   -8.5494 O.2       6 UNK        -0.5248 
     44 N          26.6086    2.7203   -7.9623 N.am      7 UNK        -0.4718 
     45 CA         25.7958    3.1176   -9.1186 C.3       7 UNK         0.0273 
     46 CB         24.3163    2.8064   -8.8430 C.3       7 UNK        -0.1935 
     47 C          26.2609    2.4598  -10.4319 C.2       7 UNK         0.5018 
     48 O          26.0677    3.0414  -11.4996 O.2       7 UNK        -0.5186 
     49 N          26.8959    1.2845  -10.3264 N.am      8 UNK        -0.4240 
     50 CA         27.5568    0.5764  -11.4254 C.3       8 UNK         0.0235 
     51 CB         27.4666   -0.9371  -11.1589 C.3       8 UNK        -0.2000 
     52 C          29.0252    1.0100  -11.6211 C.2       8 UNK         0.4941 
     53 O          29.6856    0.4728  -12.5109 O.2       8 UNK        -0.5273 
     54 N          29.5179    1.9424  -10.7879 N.am      9 UNK        -0.4262 
     55 CA         30.8940    2.4514  -10.7118 C.3       9 UNK         0.0264 
     56 CB         31.2940    3.1777  -12.0140 C.3       9 UNK        -0.1955 
     57 C          31.9322    1.3964  -10.2719 C.2       9 UNK         0.5031 
     58 O          33.1213    1.5639  -10.5483 O.2       9 UNK        -0.5390 
     59 N          31.4817    0.3494   -9.5681 N.am      10 UNK        -0.4204 
     60 CA         32.3109   -0.7323   -9.0289 C.3       10 UNK         0.0237 
     61 CB         31.5725   -2.0677   -9.2306 C.3       10 UNK        -0.1985 
     62 C          32.6888   -0.5172   -7.5501 C.2       10 UNK         0.4970 
     63 O          33.5154   -1.2692   -7.0339 O.2       10 UNK        -0.4914 
     64 N          32.0972    0.4913   -6.8980 N.am      11 UNK        -0.4285 
     65 CA         32.3778    0.9037   -5.5122 C.3       11 UNK         0.1007 
     66 C          32.4176    2.4522   -5.3491 C.2       11 UNK         0.5703 
     67 N          32.6010    3.2191   -6.4190 N.am      11 UNK        -0.7361 
     68 O          32.2883    2.9759   -4.2462 O.2       11 UNK        -0.4986 
     69 C69        31.4386    0.1856   -4.5010 C.3       12 UNK        -0.0947 
     70 S70        32.2269   -0.1695   -2.8918 S.3       12 UNK        -0.2240 
     71 C71        33.0475   -1.7731   -3.1710 C.3       12 UNK         0.0194 
     72 H72        23.0159   -6.6938   -2.9899 H         1 UNK         0.0906 
     73 H73        22.2357   -5.1502   -2.6343 H         1 UNK         0.0906 
     74 H74        23.4107   -5.2648   -3.9461 H         1 UNK         0.0906 
     75 H75        25.3680   -4.2878   -3.3618 H         1 UNK         0.3140 
     76 H76        26.0903   -3.8435   -0.6267 H         1 UNK         0.1085 
     77 H77        27.0147   -6.1721   -1.0079 H         1 UNK         0.0836 
     78 H78        27.9144   -5.5890   -2.3679 H         1 UNK         0.0836 
     79 H79        30.1620   -6.5701   -1.3356 H         1 UNK         0.0731 
     80 H80        31.1564   -5.5449   -0.3409 H         1 UNK         0.0731 
     81 H81        31.9689   -3.3249   -1.1763 H         1 UNK         0.1312 
     82 H82        31.9728   -2.8101   -5.4328 H         1 UNK         0.1406 
     83 H83        29.6553   -5.9437   -3.6748 H         1 UNK         0.1631 
     84 H84        30.0678   -5.8294   -6.1515 H         1 UNK         0.0717 
     85 H85        30.8414   -4.4270   -6.8504 H         1 UNK         0.0717 
     86 H86        29.0806   -1.9454   -5.1223 H         1 UNK         0.0934 
     87 H87        29.9375   -2.0642   -6.6408 H         1 UNK         0.0934 
     88 H88        27.6319   -1.7686   -7.7963 H         1 UNK         0.0739 
     89 H89        26.7120   -1.6779   -5.1163 H         1 UNK         0.3093 
     90 H90        23.5347   -0.1719   -5.8886 H         1 UNK         0.0818 
     91 H91        23.4033   -2.5991   -6.3608 H         1 UNK         0.0819 
     92 H92        24.4947   -2.9583   -5.0331 H         1 UNK         0.0819 
     93 H93        22.8999   -2.2794   -4.7092 H         1 UNK         0.0819 
     94 H94        25.0515   -1.0368   -3.5196 H         1 UNK         0.3041 
     95 H95        25.8475    2.2631   -2.5040 H         1 UNK         0.0784 
     96 H96        23.4759    2.0496   -1.7323 H         1 UNK         0.0793 
     97 H97        23.7558    0.3694   -1.2970 H         1 UNK         0.0793 
     98 H98        24.6037    1.6611   -0.4450 H         1 UNK         0.0793 
     99 H99        26.1999   -0.2016   -1.1546 H         1 UNK         0.3024 
    100 H100       29.2237   -1.2136   -2.7717 H         1 UNK         0.1171 
    101 H101       30.0891   -1.0351   -0.4778 H         1 UNK         0.0786 
    102 H102       29.8326    0.5822   -1.1085 H         1 UNK         0.0786 
    103 H103       28.6842   -0.0979    0.0357 H         1 UNK         0.0786 
    104 H104       28.0627   -2.4630   -0.6222 H         1 UNK         0.2977 
    105 H105       27.8940    0.8882   -5.3943 H         1 UNK         0.3127 
    106 H106       29.6989    2.5055   -6.8312 H         1 UNK         0.0770 
    107 H107       27.3940    3.2813   -4.9717 H         1 UNK         0.0814 
    108 H108       28.6549    4.3828   -5.5166 H         1 UNK         0.0814 
    109 H109       29.0753    3.0062   -4.5147 H         1 UNK         0.0814 
    110 H110       26.1881    2.0746   -7.3066 H         1 UNK         0.2983 
    111 H111       25.8962    4.1982   -9.2437 H         1 UNK         0.0947 
    112 H112       23.6861    3.1667   -9.6573 H         1 UNK         0.0806 
    113 H113       23.9714    3.2890   -7.9283 H         1 UNK         0.0806 
    114 H114       24.1372    1.7357   -8.7456 H         1 UNK         0.0806 
    115 H115       27.0059    0.8841   -9.4038 H         1 UNK         0.3000 
    116 H116       27.0298    0.7886  -12.3581 H         1 UNK         0.0850 
    117 H117       27.8651   -1.5064  -11.9997 H         1 UNK         0.0810 
    118 H118       26.4338   -1.2548  -11.0149 H         1 UNK         0.0810 
    119 H119       28.0336   -1.2281  -10.2745 H         1 UNK         0.0810 
    120 H120       28.8903    2.3233  -10.0899 H         1 UNK         0.3040 
    121 H121       30.8842    3.1987   -9.9171 H         1 UNK         0.0766 
    122 H122       31.4072    2.4842  -12.8476 H         1 UNK         0.0812 
    123 H123       32.2450    3.6984  -11.8959 H         1 UNK         0.0812 
    124 H124       30.5515    3.9243  -12.2958 H         1 UNK         0.0812 
    125 H125       30.4895    0.3093   -9.3342 H         1 UNK         0.3205 
    126 H126       33.2499   -0.7881   -9.5835 H         1 UNK         0.0754 
    127 H127       32.1070   -2.8951   -8.7618 H         1 UNK         0.0769 
    128 H128       31.4823   -2.3035  -10.2912 H         1 UNK         0.0769 
    129 H129       30.5654   -2.0462   -8.8171 H         1 UNK         0.0769 
    130 H130       31.4200    1.0519   -7.3927 H         1 UNK         0.2981 
    131 H131       33.4018    0.5983   -5.2909 H         1 UNK         0.0541 
    132 H132       32.6293    4.2193   -6.2975 H         1 UNK         0.3459 
    133 H133       32.8036    2.8191   -7.3200 H         1 UNK         0.3459 
    134 H134       31.0813   -0.7523   -4.9132 H         1 UNK         0.0612 
    135 H135       30.5383    0.7752   -4.3234 H         1 UNK         0.0612 
    136 H136       33.6697   -1.7061   -4.0651 H         1 UNK         0.0624 
    137 H137       33.7308   -1.9605   -2.3416 H         1 UNK         0.0624 
@<TRIPOS>BOND
     1    1    2 1    
     2    1   72 1    
     3    1   73 1    
     4    1   74 1    
     5    2    3 2    
     6    2    4 am   BACKBONE|DICT|INTERRES
     7    4    5 1    
     8    4   75 1    
     9    5    6 1    
    10    5   35 1    
    11    5   76 1    
    12    6    7 1    
    13    6   77 1    
    14    6   78 1    
    15    7    8 1    
    16    8    9 1    
    17    8   79 1    
    18    8   80 1    
    19    9   10 ar   
    20    9   14 ar   
    21   10   11 ar   
    22   10   81 1    
    23   11   12 ar   
    24   11   71 1    
    25   12   13 ar   
    26   12   82 1    
    27   13   14 ar   
    28   13   15 1    
    29   14   83 1    
    30   15   16 1    
    31   15   84 1    
    32   15   85 1    
    33   16   17 1    
    34   17   18 1    
    35   17   86 1    
    36   17   87 1    
    37   18   19 1    
    38   18   37 1    
    39   18   88 1    
    40   19   20 am   BACKBONE|DICT|INTERRES
    41   19   89 1    
    42   20   21 2    
    43   20   22 1    
    44   22   23 1    
    45   22   24 1    
    46   22   90 1    
    47   23   91 1    
    48   23   92 1    
    49   23   93 1    
    50   24   25 am   BACKBONE|DICT|INTERRES
    51   24   94 1    
    52   25   26 2    
    53   25   27 1    
    54   27   28 1    
    55   27   29 1    
    56   27   95 1    
    57   28   96 1    
    58   28   97 1    
    59   28   98 1    
    60   29   30 am   BACKBONE|DICT|INTERRES
    61   29   99 1    
    62   30   31 2    
    63   30   32 1    
    64   32   33 1    
    65   32   34 1    
    66   32  100 1    
    67   33  101 1    
    68   33  102 1    
    69   33  103 1    
    70   34   35 am   BACKBONE|DICT|INTERRES
    71   34  104 1    
    72   35   36 2    
    73   37   38 2    
    74   37   39 am   BACKBONE|DICT|INTERRES
    75   39   40 1    
    76   39  105 1    
    77   40   41 1    
    78   40   42 1    
    79   40  106 1    
    80   41  107 1    
    81   41  108 1    
    82   41  109 1    
    83   42   43 2    
    84   42   44 am   BACKBONE|DICT|INTERRES
    85   44   45 1    
    86   44  110 1    
    87   45   46 1    
    88   45   47 1    
    89   45  111 1    
    90   46  112 1    
    91   46  113 1    
    92   46  114 1    
    93   47   48 2    
    94   47   49 am   BACKBONE|DICT|INTERRES
    95   49   50 1    
    96   49  115 1    
    97   50   51 1    
    98   50   52 1    
    99   50  116 1    
   100   51  117 1    
   101   51  118 1    
   102   51  119 1    
   103   52   53 2    
   104   52   54 am   BACKBONE|DICT|INTERRES
   105   54   55 1    
   106   54  120 1    
   107   55   56 1    
   108   55   57 1    
   109   55  121 1    
   110   56  122 1    
   111   56  123 1    
   112   56  124 1    
   113   57   58 2    
   114   57   59 am   BACKBONE|DICT|INTERRES
   115   59   60 1    
   116   59  125 1    
   117   60   61 1    
   118   60   62 1    
   119   60  126 1    
   120   61  127 1    
   121   61  128 1    
   122   61  129 1    
   123   62   63 2    
   124   62   64 am   BACKBONE|DICT|INTERRES
   125   64   65 1    
   126   64  130 1    
   127   65   66 1    
   128   65   69 1    
   129   65  131 1    
   130   66   67 am   BACKBONE|DICT|INTERRES
   131   66   68 2    
   132   67  132 1    
   133   67  133 1    
   134   69   70 1    
   135   69  134 1    
   136   69  135 1    
   137   70   71 1    
   138   71  136 1    
   139   71  137 1    
@<TRIPOS>SUBSTRUCTURE
     1 UNK         1 GROUP             0       ****    0 ROOT    
