@<TRIPOS>MOLECULE
3R137
137   139    1
SMALL
USER_CHARGES


@<TRIPOS>ATOM
      1 CA         33.1037   -4.0586   -5.0203 C.3       0 UNK        -0.2020 
      2 C          31.7712   -4.7727   -5.1778 C.2       0 UNK         0.4855 
      3 O          31.7180   -5.9922   -5.0182 O.2       0 UNK        -0.5197 
      4 N          30.7036   -4.0260   -5.4868 N.am      1 UNK        -0.4892 
      5 CA         29.3413   -4.5390   -5.6511 C.3       1 UNK         0.0835 
      6 C6         28.4162   -4.1101   -4.4872 C.3       12 UNK        -0.0855 
      7 S7         28.8824   -4.8860   -2.9073 S.3       12 UNK        -0.2931 
      8 C8         28.2400   -3.6524   -1.7281 C.3       12 UNK         0.0378 
      9 C9         29.0775   -2.3838   -1.5423 C.ar      12 UNK        -0.0802 
     10 C10        30.3408   -2.1906   -2.1218 C.ar      12 UNK        -0.0944 
     11 C11        31.0767   -1.0289   -1.8607 C.ar      12 UNK        -0.0787 
     12 C12        30.5359   -0.0452   -1.0258 C.ar      12 UNK        -0.0862 
     13 C13        29.2783   -0.2209   -0.4430 C.ar      12 UNK        -0.0733 
     14 C14        28.5616   -1.3914   -0.7054 C.ar      12 UNK        -0.0832 
     15 C15        28.7238    0.8138    0.5283 C.3       12 UNK         0.0240 
     16 S16        27.0300    1.3387    0.1083 S.3       12 UNK        -0.2522 
     17 C17        27.3234    2.5457   -1.2274 C.3       12 UNK        -0.0967 
     18 CA         27.0994    1.9867   -2.6576 C.3       5 UNK         0.0660 
     19 N          25.8495    1.2100   -2.7630 N.am      5 UNK        -0.4015 
     20 C          25.1970    0.8219   -3.8678 C.2       4 UNK         0.4946 
     21 O          25.4089    1.2731   -4.9930 O.2       4 UNK        -0.5353 
     22 CA         24.0916   -0.2338   -3.6862 C.3       4 UNK         0.0277 
     23 CB         22.7755    0.4390   -3.2640 C.3       4 UNK        -0.1981 
     24 N          23.8676   -0.9843   -4.9281 N.am      4 UNK        -0.4209 
     25 C          24.7445   -1.8422   -5.4690 C.2       3 UNK         0.4942 
     26 O          25.7643   -2.2308   -4.8935 O.2       3 UNK        -0.5208 
     27 CA         24.4440   -2.3418   -6.8930 C.3       3 UNK         0.0250 
     28 CB         24.1003   -1.1785   -7.8508 C.3       3 UNK        -0.1990 
     29 N          25.6080   -3.0948   -7.3667 N.am      3 UNK        -0.4232 
     30 C          25.6981   -3.8263   -8.4844 C.2       2 UNK         0.4993 
     31 O          24.7877   -3.9261   -9.3075 O.2       2 UNK        -0.5286 
     32 CA         26.9909   -4.6286   -8.7239 C.3       2 UNK         0.0209 
     33 CB         27.7969   -4.0835   -9.9216 C.3       2 UNK        -0.1931 
     34 N          27.8085   -4.8267   -7.5159 N.am      2 UNK        -0.4546 
     35 C          28.7664   -4.0492   -6.9906 C.2       1 UNK         0.5154 
     36 O          29.1765   -2.9974   -7.4910 O.2       1 UNK        -0.5181 
     37 C          27.2864    3.1371   -3.6731 C.2       5 UNK         0.5014 
     38 O          28.3777    3.2858   -4.2232 O.2       5 UNK        -0.5248 
     39 N          26.2325    3.9371   -3.8878 N.am      6 UNK        -0.4434 
     40 CA         26.2391    5.0964   -4.7849 C.3       6 UNK         0.0363 
     41 CB         25.0460    6.0019   -4.4373 C.3       6 UNK        -0.1936 
     42 C          26.2143    4.7365   -6.2828 C.2       6 UNK         0.5081 
     43 O          26.6413    5.5554   -7.0975 O.2       6 UNK        -0.5248 
     44 N          25.6996    3.5492   -6.6246 N.am      7 UNK        -0.4718 
     45 CA         25.5363    3.0613   -7.9973 C.3       7 UNK         0.0273 
     46 CB         24.0651    2.6545   -8.1902 C.3       7 UNK        -0.1935 
     47 C          26.4610    1.8750   -8.3217 C.2       7 UNK         0.5018 
     48 O          26.5546    1.5060   -9.4922 O.2       7 UNK        -0.5186 
     49 N          27.0798    1.2806   -7.2912 N.am      8 UNK        -0.4240 
     50 CA         27.9376    0.0943   -7.3036 C.3       8 UNK         0.0235 
     51 CB         28.4396   -0.1471   -5.8689 C.3       8 UNK        -0.2000 
     52 C          29.1033    0.1917   -8.3017 C.2       8 UNK         0.4941 
     53 O          30.1629    0.7233   -7.9638 O.2       8 UNK        -0.5273 
     54 N          28.8845   -0.3291   -9.5158 N.am      9 UNK        -0.4262 
     55 CA         29.8083   -0.2604  -10.6497 C.3       9 UNK         0.0264 
     56 CB         29.1208   -0.8286  -11.9020 C.3       9 UNK        -0.1955 
     57 C          31.1631   -0.9500  -10.4200 C.2       9 UNK         0.5031 
     58 O          32.1506   -0.5207  -11.0186 O.2       9 UNK        -0.5390 
     59 N          31.2021   -1.9843   -9.5666 N.am      10 UNK        -0.4204 
     60 CA         32.4460   -2.6568   -9.1831 C.3       10 UNK         0.0237 
     61 CB         32.1711   -4.1449   -8.9146 C.3       10 UNK        -0.1985 
     62 C          33.1378   -1.9813   -7.9848 C.2       10 UNK         0.4970 
     63 O          34.3235   -2.2353   -7.7718 O.2       10 UNK        -0.4914 
     64 N          32.4117   -1.1443   -7.2288 N.am      11 UNK        -0.4285 
     65 CA         32.9716   -0.2919   -6.1702 C.3       11 UNK         0.1007 
     66 C          33.5596    1.0187   -6.7603 C.2       11 UNK         0.5703 
     67 N          32.8358    1.7046   -7.6369 N.am      11 UNK        -0.7361 
     68 O          34.6825    1.4013   -6.4402 O.2       11 UNK        -0.4986 
     69 C69        31.9243   -0.0173   -5.0585 C.3       12 UNK        -0.0947 
     70 S70        32.6692    0.5754   -3.5046 S.3       12 UNK        -0.2240 
     71 C71        32.4894   -0.8695   -2.4115 C.3       12 UNK         0.0194 
     72 H72        32.9861   -2.9777   -5.0232 H         1 UNK         0.0906 
     73 H73        33.5724   -4.3413   -4.0781 H         1 UNK         0.0906 
     74 H74        33.7770   -4.3328   -5.8321 H         1 UNK         0.0906 
     75 H75        30.8061   -3.0437   -5.6972 H         1 UNK         0.3140 
     76 H76        29.3603   -5.6304   -5.6950 H         1 UNK         0.1085 
     77 H77        28.4195   -3.0235   -4.3768 H         1 UNK         0.0836 
     78 H78        27.3804   -4.3931   -4.6842 H         1 UNK         0.0836 
     79 H79        28.1457   -4.1412   -0.7574 H         1 UNK         0.0731 
     80 H80        27.2286   -3.3757   -2.0316 H         1 UNK         0.0731 
     81 H81        30.7746   -2.9534   -2.7513 H         1 UNK         0.1312 
     82 H82        31.1118    0.8444   -0.8097 H         1 UNK         0.1406 
     83 H83        27.5982   -1.5385   -0.2353 H         1 UNK         0.1631 
     84 H84        29.3740    1.6875    0.5931 H         1 UNK         0.0717 
     85 H85        28.7095    0.3724    1.5257 H         1 UNK         0.0717 
     86 H86        26.6520    3.3863   -1.0389 H         1 UNK         0.0934 
     87 H87        28.3338    2.9489   -1.1320 H         1 UNK         0.0934 
     88 H88        27.8975    1.2684   -2.8573 H         1 UNK         0.0739 
     89 H89        25.5523    0.8112   -1.8837 H         1 UNK         0.3093 
     90 H90        24.4016   -0.9370   -2.9101 H         1 UNK         0.0818 
     91 H91        22.8922    0.9766   -2.3220 H         1 UNK         0.0819 
     92 H92        22.4330    1.1586   -4.0090 H         1 UNK         0.0819 
     93 H93        21.9834   -0.2957   -3.1179 H         1 UNK         0.0819 
     94 H94        23.0710   -0.7026   -5.4793 H         1 UNK         0.3041 
     95 H95        23.5950   -3.0252   -6.8332 H         1 UNK         0.0784 
     96 H96        23.9000   -1.5256   -8.8637 H         1 UNK         0.0793 
     97 H97        24.9133   -0.4588   -7.9053 H         1 UNK         0.0793 
     98 H98        23.2078   -0.6414   -7.5300 H         1 UNK         0.0793 
     99 H99        26.3789   -3.0896   -6.7099 H         1 UNK         0.3024 
    100 H100       26.6587   -5.6303   -9.0030 H         1 UNK         0.1171 
    101 H101       27.2149   -4.1517  -10.8415 H         1 UNK         0.0786 
    102 H102       28.0580   -3.0353   -9.7894 H         1 UNK         0.0786 
    103 H103       28.7173   -4.6466  -10.0768 H         1 UNK         0.0786 
    104 H104       27.5645   -5.6609   -6.9983 H         1 UNK         0.2977 
    105 H105       25.3651    3.7287   -3.4147 H         1 UNK         0.3127 
    106 H106       27.1563    5.6613   -4.6034 H         1 UNK         0.0770 
    107 H107       25.0380    6.8945   -5.0647 H         1 UNK         0.0814 
    108 H108       25.0897    6.3379   -3.4012 H         1 UNK         0.0814 
    109 H109       24.0941    5.4909   -4.5872 H         1 UNK         0.0814 
    110 H110       25.4217    2.9031   -5.8882 H         1 UNK         0.2983 
    111 H111       25.7699    3.8496   -8.7161 H         1 UNK         0.0947 
    112 H112       23.8915    2.2617   -9.1931 H         1 UNK         0.0806 
    113 H113       23.3996    3.5075   -8.0575 H         1 UNK         0.0806 
    114 H114       23.7657    1.8838   -7.4790 H         1 UNK         0.0806 
    115 H115       26.8397    1.6230   -6.3686 H         1 UNK         0.3000 
    116 H116       27.3234   -0.7613   -7.5870 H         1 UNK         0.0850 
    117 H117       28.9230    0.7400   -5.4601 H         1 UNK         0.0810 
    118 H118       29.1572   -0.9652   -5.8303 H         1 UNK         0.0810 
    119 H119       27.6225   -0.4098   -5.1999 H         1 UNK         0.0810 
    120 H120       27.9614   -0.6872   -9.7131 H         1 UNK         0.3040 
    121 H121       30.0139    0.7973  -10.8275 H         1 UNK         0.0766 
    122 H122       28.1959   -0.2958  -12.1243 H         1 UNK         0.0812 
    123 H123       28.8829   -1.8868  -11.7909 H         1 UNK         0.0812 
    124 H124       29.7655   -0.7321  -12.7768 H         1 UNK         0.0812 
    125 H125       30.3546   -2.2701   -9.0850 H         1 UNK         0.3205 
    126 H126       33.1516   -2.6112  -10.0156 H         1 UNK         0.0754 
    127 H127       31.4480   -4.2897   -8.1167 H         1 UNK         0.0769 
    128 H128       33.0844   -4.6670   -8.6258 H         1 UNK         0.0769 
    129 H129       31.7840   -4.6398   -9.8054 H         1 UNK         0.0769 
    130 H130       31.4763   -0.9026   -7.5301 H         1 UNK         0.2981 
    131 H131       33.7996   -0.8317   -5.7064 H         1 UNK         0.0541 
    132 H132       31.8880    1.4071   -7.8574 H         1 UNK         0.3459 
    133 H133       33.2069    2.5511   -8.0364 H         1 UNK         0.3459 
    134 H134       31.1987    0.7256   -5.3895 H         1 UNK         0.0612 
    135 H135       31.3549   -0.9216   -4.8426 H         1 UNK         0.0612 
    136 H136       32.8124   -1.7667   -2.9402 H         1 UNK         0.0624 
    137 H137       33.1756   -0.7512   -1.5719 H         1 UNK         0.0624 
@<TRIPOS>BOND
     1    1    2 1    
     2    1   72 1    
     3    1   73 1    
     4    1   74 1    
     5    2    3 2    
     6    2    4 am   BACKBONE|DICT|INTERRES
     7    4    5 1    
     8    4   75 1    
     9    5    6 1    
    10    5   35 1    
    11    5   76 1    
    12    6    7 1    
    13    6   77 1    
    14    6   78 1    
    15    7    8 1    
    16    8    9 1    
    17    8   79 1    
    18    8   80 1    
    19    9   10 ar   
    20    9   14 ar   
    21   10   11 ar   
    22   10   81 1    
    23   11   12 ar   
    24   11   71 1    
    25   12   13 ar   
    26   12   82 1    
    27   13   14 ar   
    28   13   15 1    
    29   14   83 1    
    30   15   16 1    
    31   15   84 1    
    32   15   85 1    
    33   16   17 1    
    34   17   18 1    
    35   17   86 1    
    36   17   87 1    
    37   18   19 1    
    38   18   37 1    
    39   18   88 1    
    40   19   20 am   BACKBONE|DICT|INTERRES
    41   19   89 1    
    42   20   21 2    
    43   20   22 1    
    44   22   23 1    
    45   22   24 1    
    46   22   90 1    
    47   23   91 1    
    48   23   92 1    
    49   23   93 1    
    50   24   25 am   BACKBONE|DICT|INTERRES
    51   24   94 1    
    52   25   26 2    
    53   25   27 1    
    54   27   28 1    
    55   27   29 1    
    56   27   95 1    
    57   28   96 1    
    58   28   97 1    
    59   28   98 1    
    60   29   30 am   BACKBONE|DICT|INTERRES
    61   29   99 1    
    62   30   31 2    
    63   30   32 1    
    64   32   33 1    
    65   32   34 1    
    66   32  100 1    
    67   33  101 1    
    68   33  102 1    
    69   33  103 1    
    70   34   35 am   BACKBONE|DICT|INTERRES
    71   34  104 1    
    72   35   36 2    
    73   37   38 2    
    74   37   39 am   BACKBONE|DICT|INTERRES
    75   39   40 1    
    76   39  105 1    
    77   40   41 1    
    78   40   42 1    
    79   40  106 1    
    80   41  107 1    
    81   41  108 1    
    82   41  109 1    
    83   42   43 2    
    84   42   44 am   BACKBONE|DICT|INTERRES
    85   44   45 1    
    86   44  110 1    
    87   45   46 1    
    88   45   47 1    
    89   45  111 1    
    90   46  112 1    
    91   46  113 1    
    92   46  114 1    
    93   47   48 2    
    94   47   49 am   BACKBONE|DICT|INTERRES
    95   49   50 1    
    96   49  115 1    
    97   50   51 1    
    98   50   52 1    
    99   50  116 1    
   100   51  117 1    
   101   51  118 1    
   102   51  119 1    
   103   52   53 2    
   104   52   54 am   BACKBONE|DICT|INTERRES
   105   54   55 1    
   106   54  120 1    
   107   55   56 1    
   108   55   57 1    
   109   55  121 1    
   110   56  122 1    
   111   56  123 1    
   112   56  124 1    
   113   57   58 2    
   114   57   59 am   BACKBONE|DICT|INTERRES
   115   59   60 1    
   116   59  125 1    
   117   60   61 1    
   118   60   62 1    
   119   60  126 1    
   120   61  127 1    
   121   61  128 1    
   122   61  129 1    
   123   62   63 2    
   124   62   64 am   BACKBONE|DICT|INTERRES
   125   64   65 1    
   126   64  130 1    
   127   65   66 1    
   128   65   69 1    
   129   65  131 1    
   130   66   67 am   BACKBONE|DICT|INTERRES
   131   66   68 2    
   132   67  132 1    
   133   67  133 1    
   134   69   70 1    
   135   69  134 1    
   136   69  135 1    
   137   70   71 1    
   138   71  136 1    
   139   71  137 1    
@<TRIPOS>SUBSTRUCTURE
     1 UNK         1 GROUP             0       ****    0 ROOT    
