@<TRIPOS>MOLECULE
3R137
137   139    1
SMALL
USER_CHARGES


@<TRIPOS>ATOM
      1 CA         23.6505    0.8817   -6.9843 C.3       0 UNK        -0.2020 
      2 C          23.4461   -0.6079   -6.7516 C.2       0 UNK         0.4855 
      3 O          22.3538   -1.1198   -6.9966 O.2       0 UNK        -0.5197 
      4 N          24.4858   -1.3073   -6.2776 N.am      1 UNK        -0.4892 
      5 CA         24.4861   -2.7526   -6.0093 C.3       1 UNK         0.0835 
      6 C6         25.9320   -3.2939   -5.8458 C.3       12 UNK        -0.0855 
      7 S7         26.7581   -2.8158   -4.2795 S.3       12 UNK        -0.2931 
      8 C8         27.5161   -4.3911   -3.7504 C.3       12 UNK         0.0378 
      9 C9         29.0273   -4.2556   -3.7286 C.ar      12 UNK        -0.0802 
     10 C10        29.7516   -4.3240   -4.9216 C.ar      12 UNK        -0.0944 
     11 C11        31.1301   -4.0949   -4.9276 C.ar      12 UNK        -0.0787 
     12 C12        31.7858   -3.8043   -3.7274 C.ar      12 UNK        -0.0862 
     13 C13        31.0659   -3.7118   -2.5320 C.ar      12 UNK        -0.0733 
     14 C14        29.6929   -3.9811   -2.5305 C.ar      12 UNK        -0.0832 
     15 C15        31.7435   -3.1981   -1.2699 C.3       12 UNK         0.0240 
     16 S16        31.0300   -1.6045   -0.7233 S.3       12 UNK        -0.2522 
     17 C17        31.2604   -0.5124   -2.1773 C.3       12 UNK        -0.0967 
     18 CA         30.0840   -0.5852   -3.1929 C.3       5 UNK         0.0660 
     19 N          28.7473   -0.4044   -2.6122 N.am      5 UNK        -0.4015 
     20 C          28.2418    0.7262   -2.1002 C.2       4 UNK         0.4946 
     21 O          28.8905    1.7590   -1.9290 O.2       4 UNK        -0.5353 
     22 CA         26.7383    0.7266   -1.7727 C.3       4 UNK         0.0277 
     23 CB         25.9594    1.4416   -2.8914 C.3       4 UNK        -0.1981 
     24 N          26.1797   -0.6170   -1.6046 N.am      4 UNK        -0.4209 
     25 C          26.2611   -1.3534   -0.4883 C.2       3 UNK         0.4942 
     26 O          26.8415   -0.9788    0.5315 O.2       3 UNK        -0.5208 
     27 CA         25.5930   -2.7458   -0.5271 C.3       3 UNK         0.0250 
     28 CB         25.1342   -3.2266    0.8664 C.3       3 UNK        -0.1990 
     29 N          24.5036   -2.8559   -1.5121 N.am      3 UNK        -0.4232 
     30 C          23.3403   -2.1844   -1.5218 C.2       2 UNK         0.4993 
     31 O          23.0037   -1.3775   -0.6540 O.2       2 UNK        -0.5286 
     32 CA         22.4351   -2.4243   -2.7425 C.3       2 UNK         0.0209 
     33 CB         21.2097   -1.4904   -2.7699 C.3       2 UNK        -0.1931 
     34 N          23.2087   -2.2230   -3.9687 N.am      2 UNK        -0.4546 
     35 C          23.5740   -3.1786   -4.8334 C.2       1 UNK         0.5154 
     36 O          23.2521   -4.3618   -4.7151 O.2       1 UNK        -0.5181 
     37 C          30.2754    0.2709   -4.4599 C.2       5 UNK         0.5014 
     38 O          31.3548    0.8139   -4.7098 O.2       5 UNK        -0.5248 
     39 N          29.2033    0.3455   -5.2531 N.am      6 UNK        -0.4434 
     40 CA         29.1219    0.9996   -6.5435 C.3       6 UNK         0.0363 
     41 CB         28.9802    2.5229   -6.3644 C.3       6 UNK        -0.1936 
     42 C          27.9042    0.4238   -7.2646 C.2       6 UNK         0.5081 
     43 O          26.9491    0.0044   -6.6051 O.2       6 UNK        -0.5248 
     44 N          27.9562    0.4423   -8.5952 N.am      7 UNK        -0.4718 
     45 CA         26.8695    0.0694   -9.4939 C.3       7 UNK         0.0273 
     46 CB         27.0053   -1.4151   -9.8914 C.3       7 UNK        -0.1935 
     47 C          26.8991    1.0621  -10.6635 C.2       7 UNK         0.5018 
     48 O          26.6082    2.2398  -10.4491 O.2       7 UNK        -0.5186 
     49 N          27.2931    0.6028  -11.8604 N.am      8 UNK        -0.4240 
     50 CA         27.5554    1.4522  -13.0310 C.3       8 UNK         0.0235 
     51 CB         27.6761    0.5672  -14.2824 C.3       8 UNK        -0.2000 
     52 C          28.8120    2.3331  -12.8692 C.2       8 UNK         0.4941 
     53 O          28.9084    3.3795  -13.5115 O.2       8 UNK        -0.5273 
     54 N          29.7354    1.8992  -12.0061 N.am      9 UNK        -0.4262 
     55 CA         30.9142    2.6169  -11.5378 C.3       9 UNK         0.0264 
     56 CB         32.1229    2.2515  -12.4177 C.3       9 UNK        -0.1955 
     57 C          31.1397    2.2130  -10.0737 C.2       9 UNK         0.5031 
     58 O          30.5145    1.2545   -9.6067 O.2       9 UNK        -0.5390 
     59 N          32.0167    2.9422   -9.3740 N.am      10 UNK        -0.4204 
     60 CA         32.4271    2.6399   -8.0004 C.3       10 UNK         0.0237 
     61 CB         33.1055    3.8763   -7.3888 C.3       10 UNK        -0.1985 
     62 C          33.3688    1.4263   -7.9522 C.2       10 UNK         0.4970 
     63 O          34.2339    1.3021   -8.8228 O.2       10 UNK        -0.4914 
     64 N          33.2149    0.5846   -6.9231 N.am      11 UNK        -0.4285 
     65 CA         34.1004   -0.5628   -6.6611 C.3       11 UNK         0.1007 
     66 C          35.4105   -0.1842   -5.9101 C.2       11 UNK         0.5703 
     67 N          35.5598    1.0302   -5.3929 N.am      11 UNK        -0.7361 
     68 O          36.3172   -1.0069   -5.8064 O.2       11 UNK        -0.4986 
     69 C69        33.3546   -1.7117   -5.9348 C.3       12 UNK        -0.0947 
     70 S70        32.0119   -2.4244   -6.9436 S.3       12 UNK        -0.2240 
     71 C71        31.8949   -4.1021   -6.2420 C.3       12 UNK         0.0194 
     72 H72        22.8559    1.4495   -6.5010 H         1 UNK         0.0906 
     73 H73        24.6020    1.2312   -6.5846 H         1 UNK         0.0906 
     74 H74        23.6268    1.1024   -8.0509 H         1 UNK         0.0906 
     75 H75        25.3898   -0.8429   -6.1815 H         1 UNK         0.3140 
     76 H76        24.0640   -3.2295   -6.8968 H         1 UNK         0.1085 
     77 H77        25.9104   -4.3803   -5.9395 H         1 UNK         0.0836 
     78 H78        26.5544   -2.9489   -6.6729 H         1 UNK         0.0836 
     79 H79        27.1419   -4.6559   -2.7612 H         1 UNK         0.0731 
     80 H80        27.2352   -5.2169   -4.4043 H         1 UNK         0.0731 
     81 H81        29.2330   -4.5126   -5.8519 H         1 UNK         0.1312 
     82 H82        32.8455   -3.5905   -3.7355 H         1 UNK         0.1406 
     83 H83        29.1331   -3.8883   -1.6096 H         1 UNK         0.1631 
     84 H84        32.8167   -3.0738   -1.4223 H         1 UNK         0.0717 
     85 H85        31.6261   -3.9338   -0.4732 H         1 UNK         0.0717 
     86 H86        31.3791    0.5107   -1.8170 H         1 UNK         0.0934 
     87 H87        32.2029   -0.7711   -2.6627 H         1 UNK         0.0934 
     88 H88        30.0682   -1.5867   -3.6068 H         1 UNK         0.0739 
     89 H89        28.1276   -1.1966   -2.7039 H         1 UNK         0.3093 
     90 H90        26.6011    1.2851   -0.8441 H         1 UNK         0.0818 
     91 H91        24.8970    1.5081   -2.6559 H         1 UNK         0.0819 
     92 H92        26.3227    2.4610   -3.0295 H         1 UNK         0.0819 
     93 H93        26.0609    0.9296   -3.8498 H         1 UNK         0.0819 
     94 H94        25.6896   -1.0102   -2.3944 H         1 UNK         0.3041 
     95 H95        26.3715   -3.4317   -0.8614 H         1 UNK         0.0784 
     96 H96        25.9775   -3.2947    1.5548 H         1 UNK         0.0793 
     97 H97        24.4080   -2.5461    1.3119 H         1 UNK         0.0793 
     98 H98        24.6802   -4.2162    0.8155 H         1 UNK         0.0793 
     99 H99        24.6824   -3.4784   -2.2887 H         1 UNK         0.3024 
    100 H100       22.0746   -3.4534   -2.6757 H         1 UNK         0.1171 
    101 H101       20.5889   -1.6323   -1.8842 H         1 UNK         0.0786 
    102 H102       20.5824   -1.6888   -3.6391 H         1 UNK         0.0786 
    103 H103       21.5015   -0.4399   -2.8014 H         1 UNK         0.0786 
    104 H104       23.5311   -1.2841   -4.1542 H         1 UNK         0.2977 
    105 H105       28.3583   -0.1589   -5.0113 H         1 UNK         0.3127 
    106 H106       30.0193    0.7525   -7.1114 H         1 UNK         0.0770 
    107 H107       28.0635    2.7788   -5.8315 H         1 UNK         0.0814 
    108 H108       28.9493    3.0266   -7.3315 H         1 UNK         0.0814 
    109 H109       29.8157    2.9433   -5.8049 H         1 UNK         0.0814 
    110 H110       28.7992    0.8105   -9.0347 H         1 UNK         0.2983 
    111 H111       25.9093    0.2072   -8.9923 H         1 UNK         0.0947 
    112 H112       26.2304   -1.7085  -10.6010 H         1 UNK         0.0806 
    113 H113       26.8943   -2.0587   -9.0186 H         1 UNK         0.0806 
    114 H114       27.9762   -1.6362  -10.3362 H         1 UNK         0.0806 
    115 H115       27.5011   -0.3811  -11.9548 H         1 UNK         0.3000 
    116 H116       26.7024    2.1213  -13.1645 H         1 UNK         0.0850 
    117 H117       27.8428    1.1740  -15.1737 H         1 UNK         0.0810 
    118 H118       28.5093   -0.1325  -14.2049 H         1 UNK         0.0810 
    119 H119       26.7661   -0.0090  -14.4512 H         1 UNK         0.0810 
    120 H120       29.5500    1.0558  -11.4783 H         1 UNK         0.3040 
    121 H121       30.7323    3.6931  -11.5771 H         1 UNK         0.0766 
    122 H122       32.3452    1.1845  -12.3719 H         1 UNK         0.0812 
    123 H123       33.0194    2.7857  -12.1011 H         1 UNK         0.0812 
    124 H124       31.9446    2.5109  -13.4615 H         1 UNK         0.0812 
    125 H125       32.5144    3.6870   -9.8401 H         1 UNK         0.3205 
    126 H126       31.5386    2.4189   -7.4124 H         1 UNK         0.0754 
    127 H127       33.3831    3.6949   -6.3496 H         1 UNK         0.0769 
    128 H128       32.4390    4.7390   -7.3969 H         1 UNK         0.0769 
    129 H129       34.0146    4.1478   -7.9274 H         1 UNK         0.0769 
    130 H130       32.5016    0.7565   -6.2179 H         1 UNK         0.2981 
    131 H131       34.4289   -0.9608   -7.6233 H         1 UNK         0.0541 
    132 H132       34.8205    1.7098   -5.4625 H         1 UNK         0.3459 
    133 H133       36.4167    1.2610   -4.9154 H         1 UNK         0.3459 
    134 H134       32.9406   -1.3648   -4.9879 H         1 UNK         0.0612 
    135 H135       34.0516   -2.5147   -5.6891 H         1 UNK         0.0612 
    136 H136       31.3886   -4.7457   -6.9629 H         1 UNK         0.0624 
    137 H137       32.8905   -4.5263   -6.1047 H         1 UNK         0.0624 
@<TRIPOS>BOND
     1    1    2 1    
     2    1   72 1    
     3    1   73 1    
     4    1   74 1    
     5    2    3 2    
     6    2    4 am   BACKBONE|DICT|INTERRES
     7    4    5 1    
     8    4   75 1    
     9    5    6 1    
    10    5   35 1    
    11    5   76 1    
    12    6    7 1    
    13    6   77 1    
    14    6   78 1    
    15    7    8 1    
    16    8    9 1    
    17    8   79 1    
    18    8   80 1    
    19    9   10 ar   
    20    9   14 ar   
    21   10   11 ar   
    22   10   81 1    
    23   11   12 ar   
    24   11   71 1    
    25   12   13 ar   
    26   12   82 1    
    27   13   14 ar   
    28   13   15 1    
    29   14   83 1    
    30   15   16 1    
    31   15   84 1    
    32   15   85 1    
    33   16   17 1    
    34   17   18 1    
    35   17   86 1    
    36   17   87 1    
    37   18   19 1    
    38   18   37 1    
    39   18   88 1    
    40   19   20 am   BACKBONE|DICT|INTERRES
    41   19   89 1    
    42   20   21 2    
    43   20   22 1    
    44   22   23 1    
    45   22   24 1    
    46   22   90 1    
    47   23   91 1    
    48   23   92 1    
    49   23   93 1    
    50   24   25 am   BACKBONE|DICT|INTERRES
    51   24   94 1    
    52   25   26 2    
    53   25   27 1    
    54   27   28 1    
    55   27   29 1    
    56   27   95 1    
    57   28   96 1    
    58   28   97 1    
    59   28   98 1    
    60   29   30 am   BACKBONE|DICT|INTERRES
    61   29   99 1    
    62   30   31 2    
    63   30   32 1    
    64   32   33 1    
    65   32   34 1    
    66   32  100 1    
    67   33  101 1    
    68   33  102 1    
    69   33  103 1    
    70   34   35 am   BACKBONE|DICT|INTERRES
    71   34  104 1    
    72   35   36 2    
    73   37   38 2    
    74   37   39 am   BACKBONE|DICT|INTERRES
    75   39   40 1    
    76   39  105 1    
    77   40   41 1    
    78   40   42 1    
    79   40  106 1    
    80   41  107 1    
    81   41  108 1    
    82   41  109 1    
    83   42   43 2    
    84   42   44 am   BACKBONE|DICT|INTERRES
    85   44   45 1    
    86   44  110 1    
    87   45   46 1    
    88   45   47 1    
    89   45  111 1    
    90   46  112 1    
    91   46  113 1    
    92   46  114 1    
    93   47   48 2    
    94   47   49 am   BACKBONE|DICT|INTERRES
    95   49   50 1    
    96   49  115 1    
    97   50   51 1    
    98   50   52 1    
    99   50  116 1    
   100   51  117 1    
   101   51  118 1    
   102   51  119 1    
   103   52   53 2    
   104   52   54 am   BACKBONE|DICT|INTERRES
   105   54   55 1    
   106   54  120 1    
   107   55   56 1    
   108   55   57 1    
   109   55  121 1    
   110   56  122 1    
   111   56  123 1    
   112   56  124 1    
   113   57   58 2    
   114   57   59 am   BACKBONE|DICT|INTERRES
   115   59   60 1    
   116   59  125 1    
   117   60   61 1    
   118   60   62 1    
   119   60  126 1    
   120   61  127 1    
   121   61  128 1    
   122   61  129 1    
   123   62   63 2    
   124   62   64 am   BACKBONE|DICT|INTERRES
   125   64   65 1    
   126   64  130 1    
   127   65   66 1    
   128   65   69 1    
   129   65  131 1    
   130   66   67 am   BACKBONE|DICT|INTERRES
   131   66   68 2    
   132   67  132 1    
   133   67  133 1    
   134   69   70 1    
   135   69  134 1    
   136   69  135 1    
   137   70   71 1    
   138   71  136 1    
   139   71  137 1    
@<TRIPOS>SUBSTRUCTURE
     1 UNK         1 GROUP             0       ****    0 ROOT    
