@<TRIPOS>MOLECULE
3R137
137   139    1
SMALL
USER_CHARGES


@<TRIPOS>ATOM
      1 CA         29.0229   -2.9148   -4.8633 C.3       0 UNK        -0.2020 
      2 C          28.2158   -3.9692   -4.1251 C.2       0 UNK         0.4855 
      3 O          27.5141   -4.7596   -4.7582 O.2       0 UNK        -0.5197 
      4 N          28.3144   -3.9948   -2.7909 N.am      1 UNK        -0.4892 
      5 CA         27.6106   -4.9324   -1.9117 C.3       1 UNK         0.0835 
      6 C6         28.1438   -4.8740   -0.4610 C.3       12 UNK        -0.0855 
      7 S7         29.8966   -5.3695   -0.3640 S.3       12 UNK        -0.2931 
      8 C8         30.6564   -3.9176    0.4263 C.3       12 UNK         0.0378 
      9 C9         30.8334   -2.7453   -0.5306 C.ar      12 UNK        -0.0802 
     10 C10        31.8532   -2.7727   -1.4865 C.ar      12 UNK        -0.0944 
     11 C11        32.1012   -1.6596   -2.2954 C.ar      12 UNK        -0.0787 
     12 C12        31.3136   -0.5136   -2.1487 C.ar      12 UNK        -0.0862 
     13 C13        30.2794   -0.4791   -1.2090 C.ar      12 UNK        -0.0733 
     14 C14        30.0371   -1.6018   -0.4096 C.ar      12 UNK        -0.0832 
     15 C15        29.4681    0.7923   -1.0034 C.3       12 UNK         0.0240 
     16 S16        28.0532    0.8995   -2.1412 S.3       12 UNK        -0.2522 
     17 C17        28.7656    1.7418   -3.6007 C.3       12 UNK        -0.0967 
     18 CA         28.5812    0.9178   -4.9061 C.3       5 UNK         0.0660 
     19 N          27.1704    0.5792   -5.1253 N.am      5 UNK        -0.4015 
     20 C          26.2066    1.3086   -5.6997 C.2       4 UNK         0.4946 
     21 O          26.4115    2.2881   -6.4197 O.2       4 UNK        -0.5353 
     22 CA         24.7582    0.8658   -5.3981 C.3       4 UNK         0.0277 
     23 CB         23.7129    1.8309   -5.9893 C.3       4 UNK        -0.1981 
     24 N          24.4556   -0.5039   -5.8303 N.am      4 UNK        -0.4209 
     25 C          24.9175   -1.6210   -5.2538 C.2       3 UNK         0.4942 
     26 O          25.6920   -1.6211   -4.2937 O.2       3 UNK        -0.5208 
     27 CA         24.4806   -2.9499   -5.8866 C.3       3 UNK         0.0250 
     28 CB         25.3704   -3.2903   -7.0929 C.3       3 UNK        -0.1990 
     29 N          24.5768   -4.0310   -4.9062 N.am      3 UNK        -0.4232 
     30 C          23.6190   -4.3326   -4.0179 C.2       2 UNK         0.4993 
     31 O          22.5076   -3.8007   -4.0056 O.2       2 UNK        -0.5286 
     32 CA         23.9387   -5.4114   -2.9670 C.3       2 UNK         0.0209 
     33 CB         23.3779   -6.7740   -3.4068 C.3       2 UNK        -0.1931 
     34 N          25.3735   -5.5442   -2.7042 N.am      2 UNK        -0.4546 
     35 C          26.0887   -4.6884   -1.9617 C.2       1 UNK         0.5154 
     36 O          25.5992   -3.7390   -1.3461 O.2       1 UNK        -0.5181 
     37 C          29.2641    1.5410   -6.1456 C.2       5 UNK         0.5014 
     38 O          29.4132    0.8616   -7.1644 O.2       5 UNK        -0.5248 
     39 N          29.6868    2.8077   -6.0418 N.am      6 UNK        -0.4434 
     40 CA         30.3766    3.5520   -7.0950 C.3       6 UNK         0.0363 
     41 CB         31.0963    4.7552   -6.4647 C.3       6 UNK        -0.1936 
     42 C          29.4648    4.0142   -8.2452 C.2       6 UNK         0.5081 
     43 O          29.9871    4.3445   -9.3093 O.2       6 UNK        -0.5248 
     44 N          28.1431    4.0508   -8.0298 N.am      7 UNK        -0.4718 
     45 CA         27.1731    4.4844   -9.0355 C.3       7 UNK         0.0273 
     46 CB         25.9320    5.0788   -8.3472 C.3       7 UNK        -0.1935 
     47 C          26.7856    3.3355   -9.9753 C.2       7 UNK         0.5018 
     48 O          26.8126    3.5193  -11.1927 O.2       7 UNK        -0.5186 
     49 N          26.4214    2.1827   -9.3972 N.am      8 UNK        -0.4240 
     50 CA         25.9354    1.0222  -10.1476 C.3       8 UNK         0.0235 
     51 CB         24.8938    0.2557   -9.3192 C.3       8 UNK        -0.2000 
     52 C          27.0692    0.0881  -10.5863 C.2       8 UNK         0.4941 
     53 O          27.1903   -0.1961  -11.7783 O.2       8 UNK        -0.5273 
     54 N          27.8554   -0.4011   -9.6180 N.am      9 UNK        -0.4262 
     55 CA         28.8782   -1.4277   -9.8430 C.3       9 UNK         0.0264 
     56 CB         28.9996   -2.2971   -8.5800 C.3       9 UNK        -0.1955 
     57 C          30.2491   -0.8517  -10.2278 C.2       9 UNK         0.5031 
     58 O          31.1081   -1.6162  -10.6695 O.2       9 UNK        -0.5390 
     59 N          30.4419    0.4602  -10.0200 N.am      10 UNK        -0.4204 
     60 CA         31.7136    1.1897  -10.1116 C.3       10 UNK         0.0237 
     61 CB         32.2538    1.2072  -11.5580 C.3       10 UNK        -0.1985 
     62 C          32.7411    0.6802   -9.0796 C.2       10 UNK         0.4970 
     63 O          33.9337    0.6041   -9.3792 O.2       10 UNK        -0.4914 
     64 N          32.2461    0.3272   -7.8842 N.am      11 UNK        -0.4285 
     65 CA         33.0261   -0.2426   -6.7760 C.3       11 UNK         0.1007 
     66 C          34.0573    0.7315   -6.1314 C.2       11 UNK         0.5703 
     67 N          33.9061    2.0432   -6.2733 N.am      11 UNK        -0.7361 
     68 O          35.0196    0.2913   -5.5085 O.2       11 UNK        -0.4986 
     69 C69        32.0802   -0.8759   -5.7179 C.3       12 UNK        -0.0947 
     70 S70        32.7911   -2.3424   -4.9012 S.3       12 UNK        -0.2240 
     71 C71        33.2652   -1.6780   -3.2753 C.3       12 UNK         0.0194 
     72 H72        29.6960   -3.3894   -5.5767 H         1 UNK         0.0906 
     73 H73        28.3537   -2.2531   -5.4112 H         1 UNK         0.0906 
     74 H74        29.6231   -2.3143   -4.1798 H         1 UNK         0.0906 
     75 H75        28.9093   -3.3270   -2.3202 H         1 UNK         0.3140 
     76 H76        27.8020   -5.9398   -2.2888 H         1 UNK         0.1085 
     77 H77        28.0104   -3.8752   -0.0413 H         1 UNK         0.0836 
     78 H78        27.5759   -5.5498    0.1815 H         1 UNK         0.0836 
     79 H79        30.0688   -3.6268    1.2986 H         1 UNK         0.0731 
     80 H80        31.6353   -4.2078    0.8110 H         1 UNK         0.0731 
     81 H81        32.4765   -3.6521   -1.5776 H         1 UNK         0.1312 
     82 H82        31.5238    0.3625   -2.7449 H         1 UNK         0.1406 
     83 H83        29.2546   -1.5677    0.3368 H         1 UNK         0.1631 
     84 H84        30.1039    1.6731   -1.1039 H         1 UNK         0.0717 
     85 H85        29.0857    0.8220    0.0181 H         1 UNK         0.0717 
     86 H86        28.2720    2.7120   -3.6828 H         1 UNK         0.0934 
     87 H87        29.8222    1.9442   -3.4185 H         1 UNK         0.0934 
     88 H88        29.0935   -0.0312   -4.7544 H         1 UNK         0.0739 
     89 H89        26.8453   -0.2431   -4.6193 H         1 UNK         0.3093 
     90 H90        24.6475    0.9017   -4.3119 H         1 UNK         0.0818 
     91 H91        22.6993    1.5388   -5.7146 H         1 UNK         0.0819 
     92 H92        23.8664    2.8444   -5.6158 H         1 UNK         0.0819 
     93 H93        23.7676    1.8795   -7.0758 H         1 UNK         0.0819 
     94 H94        23.8343   -0.5933   -6.6212 H         1 UNK         0.3041 
     95 H95        23.4473   -2.8574   -6.2282 H         1 UNK         0.0784 
     96 H96        25.0687   -4.2312   -7.5534 H         1 UNK         0.0793 
     97 H97        25.3104   -2.5208   -7.8629 H         1 UNK         0.0793 
     98 H98        26.4167   -3.3833   -6.8032 H         1 UNK         0.0793 
     99 H99        25.4940   -4.4530   -4.7986 H         1 UNK         0.3024 
    100 H100       23.4401   -5.1186   -2.0398 H         1 UNK         0.1171 
    101 H101       23.8420   -7.1238   -4.3299 H         1 UNK         0.0786 
    102 H102       22.3032   -6.7140   -3.5849 H         1 UNK         0.0786 
    103 H103       23.5355   -7.5341   -2.6414 H         1 UNK         0.0786 
    104 H104       25.8606   -6.2741   -3.2060 H         1 UNK         0.2977 
    105 H105       29.5035    3.3124   -5.1871 H         1 UNK         0.3127 
    106 H106       31.1343    2.9016   -7.5307 H         1 UNK         0.0770 
    107 H107       30.3925    5.4532   -6.0095 H         1 UNK         0.0814 
    108 H108       31.6625    5.3092   -7.2150 H         1 UNK         0.0814 
    109 H109       31.8029    4.4410   -5.6963 H         1 UNK         0.0814 
    110 H110       27.7657    3.6822   -7.1632 H         1 UNK         0.2983 
    111 H111       27.6181    5.2749   -9.6447 H         1 UNK         0.0947 
    112 H112       25.2123    5.4347   -9.0855 H         1 UNK         0.0806 
    113 H113       26.1983    5.9293   -7.7196 H         1 UNK         0.0806 
    114 H114       25.4184    4.3498   -7.7201 H         1 UNK         0.0806 
    115 H115       26.4284    2.1317   -8.3822 H         1 UNK         0.3000 
    116 H116       25.4309    1.3668  -11.0535 H         1 UNK         0.0850 
    117 H117       25.2988   -0.0559   -8.3587 H         1 UNK         0.0810 
    118 H118       24.0090    0.8655   -9.1404 H         1 UNK         0.0810 
    119 H119       24.5614   -0.6427   -9.8416 H         1 UNK         0.0810 
    120 H120       27.7376   -0.0800   -8.6663 H         1 UNK         0.3040 
    121 H121       28.5637   -2.0777  -10.6626 H         1 UNK         0.0766 
    122 H122       28.0639   -2.8109   -8.3667 H         1 UNK         0.0812 
    123 H123       29.2693   -1.7074   -7.7049 H         1 UNK         0.0812 
    124 H124       29.7647   -3.0651   -8.7021 H         1 UNK         0.0812 
    125 H125       29.6684    0.9709   -9.6162 H         1 UNK         0.3205 
    126 H126       31.4979    2.2220   -9.8399 H         1 UNK         0.0754 
    127 H127       31.4987    1.5650  -12.2579 H         1 UNK         0.0769 
    128 H128       32.5754    0.2187  -11.8869 H         1 UNK         0.0769 
    129 H129       33.1145    1.8717  -11.6438 H         1 UNK         0.0769 
    130 H130       31.2491    0.4260   -7.7223 H         1 UNK         0.2981 
    131 H131       33.6144   -1.0473   -7.2214 H         1 UNK         0.0541 
    132 H132       33.1407    2.4178   -6.8054 H         1 UNK         0.3459 
    133 H133       34.5874    2.6610   -5.8615 H         1 UNK         0.3459 
    134 H134       31.1665   -1.2281   -6.1979 H         1 UNK         0.0612 
    135 H135       31.7546   -0.1393   -4.9839 H         1 UNK         0.0612 
    136 H136       34.0703   -2.2951   -2.8739 H         1 UNK         0.0624 
    137 H137       33.6839   -0.6774   -3.3857 H         1 UNK         0.0624 
@<TRIPOS>BOND
     1    1    2 1    
     2    1   72 1    
     3    1   73 1    
     4    1   74 1    
     5    2    3 2    
     6    2    4 am   BACKBONE|DICT|INTERRES
     7    4    5 1    
     8    4   75 1    
     9    5    6 1    
    10    5   35 1    
    11    5   76 1    
    12    6    7 1    
    13    6   77 1    
    14    6   78 1    
    15    7    8 1    
    16    8    9 1    
    17    8   79 1    
    18    8   80 1    
    19    9   10 ar   
    20    9   14 ar   
    21   10   11 ar   
    22   10   81 1    
    23   11   12 ar   
    24   11   71 1    
    25   12   13 ar   
    26   12   82 1    
    27   13   14 ar   
    28   13   15 1    
    29   14   83 1    
    30   15   16 1    
    31   15   84 1    
    32   15   85 1    
    33   16   17 1    
    34   17   18 1    
    35   17   86 1    
    36   17   87 1    
    37   18   19 1    
    38   18   37 1    
    39   18   88 1    
    40   19   20 am   BACKBONE|DICT|INTERRES
    41   19   89 1    
    42   20   21 2    
    43   20   22 1    
    44   22   23 1    
    45   22   24 1    
    46   22   90 1    
    47   23   91 1    
    48   23   92 1    
    49   23   93 1    
    50   24   25 am   BACKBONE|DICT|INTERRES
    51   24   94 1    
    52   25   26 2    
    53   25   27 1    
    54   27   28 1    
    55   27   29 1    
    56   27   95 1    
    57   28   96 1    
    58   28   97 1    
    59   28   98 1    
    60   29   30 am   BACKBONE|DICT|INTERRES
    61   29   99 1    
    62   30   31 2    
    63   30   32 1    
    64   32   33 1    
    65   32   34 1    
    66   32  100 1    
    67   33  101 1    
    68   33  102 1    
    69   33  103 1    
    70   34   35 am   BACKBONE|DICT|INTERRES
    71   34  104 1    
    72   35   36 2    
    73   37   38 2    
    74   37   39 am   BACKBONE|DICT|INTERRES
    75   39   40 1    
    76   39  105 1    
    77   40   41 1    
    78   40   42 1    
    79   40  106 1    
    80   41  107 1    
    81   41  108 1    
    82   41  109 1    
    83   42   43 2    
    84   42   44 am   BACKBONE|DICT|INTERRES
    85   44   45 1    
    86   44  110 1    
    87   45   46 1    
    88   45   47 1    
    89   45  111 1    
    90   46  112 1    
    91   46  113 1    
    92   46  114 1    
    93   47   48 2    
    94   47   49 am   BACKBONE|DICT|INTERRES
    95   49   50 1    
    96   49  115 1    
    97   50   51 1    
    98   50   52 1    
    99   50  116 1    
   100   51  117 1    
   101   51  118 1    
   102   51  119 1    
   103   52   53 2    
   104   52   54 am   BACKBONE|DICT|INTERRES
   105   54   55 1    
   106   54  120 1    
   107   55   56 1    
   108   55   57 1    
   109   55  121 1    
   110   56  122 1    
   111   56  123 1    
   112   56  124 1    
   113   57   58 2    
   114   57   59 am   BACKBONE|DICT|INTERRES
   115   59   60 1    
   116   59  125 1    
   117   60   61 1    
   118   60   62 1    
   119   60  126 1    
   120   61  127 1    
   121   61  128 1    
   122   61  129 1    
   123   62   63 2    
   124   62   64 am   BACKBONE|DICT|INTERRES
   125   64   65 1    
   126   64  130 1    
   127   65   66 1    
   128   65   69 1    
   129   65  131 1    
   130   66   67 am   BACKBONE|DICT|INTERRES
   131   66   68 2    
   132   67  132 1    
   133   67  133 1    
   134   69   70 1    
   135   69  134 1    
   136   69  135 1    
   137   70   71 1    
   138   71  136 1    
   139   71  137 1    
@<TRIPOS>SUBSTRUCTURE
     1 UNK         1 GROUP             0       ****    0 ROOT    
