@<TRIPOS>MOLECULE
3R137
137   139    1
SMALL
USER_CHARGES


@<TRIPOS>ATOM
      1 CA         27.7969   -5.7576    2.0970 C.3       0 UNK        -0.2020 
      2 C          27.2807   -4.8486    0.9925 C.2       0 UNK         0.4855 
      3 O          27.1440   -5.2925   -0.1480 O.2       0 UNK        -0.5197 
      4 N          26.9868   -3.5830    1.3240 N.am      1 UNK        -0.4892 
      5 CA         26.4941   -2.4962    0.4554 C.3       1 UNK         0.0835 
      6 C6         27.4386   -2.1446   -0.7262 C.3       12 UNK        -0.0855 
      7 S7         29.0899   -1.6024   -0.1568 S.3       12 UNK        -0.2931 
      8 C8         30.1526   -3.0273   -0.5655 C.3       12 UNK         0.0378 
      9 C9         30.5455   -3.0418   -2.0349 C.ar      12 UNK        -0.0802 
     10 C10        31.6621   -2.3186   -2.4697 C.ar      12 UNK        -0.0944 
     11 C11        32.0236   -2.3175   -3.8206 C.ar      12 UNK        -0.0787 
     12 C12        31.2726   -3.0608   -4.7324 C.ar      12 UNK        -0.0862 
     13 C13        30.1224   -3.7386   -4.3184 C.ar      12 UNK        -0.0733 
     14 C14        29.7824   -3.7568   -2.9636 C.ar      12 UNK        -0.0832 
     15 C15        29.1891   -4.3469   -5.3551 C.3       12 UNK         0.0240 
     16 S16        27.8280   -3.1964   -5.7691 S.3       12 UNK        -0.2522 
     17 C17        28.7487   -1.6447   -6.0523 C.3       12 UNK        -0.0967 
     18 CA         27.9418   -0.5382   -6.7562 C.3       5 UNK         0.0660 
     19 N          26.7280   -0.1693   -6.0206 N.am      5 UNK        -0.4015 
     20 C          25.8130    0.7266   -6.4132 C.2       4 UNK         0.4946 
     21 O          25.9218    1.3956   -7.4443 O.2       4 UNK        -0.5353 
     22 CA         24.5857    0.9084   -5.4982 C.3       4 UNK         0.0277 
     23 CB         23.5696    1.9110   -6.0775 C.3       4 UNK        -0.1981 
     24 N          23.9007   -0.3585   -5.2202 N.am      4 UNK        -0.4209 
     25 C          24.3230   -1.3006   -4.3676 C.2       3 UNK         0.4942 
     26 O          25.3692   -1.2180   -3.7166 O.2       3 UNK        -0.5208 
     27 CA         23.4548   -2.5571   -4.2602 C.3       3 UNK         0.0250 
     28 CB         23.7421   -3.5251   -5.4212 C.3       3 UNK        -0.1990 
     29 N          23.7498   -3.2198   -2.9945 N.am      3 UNK        -0.4232 
     30 C          22.8502   -3.7792   -2.1794 C.2       2 UNK         0.4993 
     31 O          21.6483   -3.8559   -2.4397 O.2       2 UNK        -0.5286 
     32 CA         23.3619   -4.3645   -0.8505 C.3       2 UNK         0.0209 
     33 CB         23.3457   -5.9017   -0.8985 C.3       2 UNK        -0.1931 
     34 N          24.7066   -3.9231   -0.4667 N.am      2 UNK        -0.4546 
     35 C          25.0381   -2.7053   -0.0204 C.2       1 UNK         0.5154 
     36 O          24.2356   -1.7747    0.0601 O.2       1 UNK        -0.5181 
     37 C          28.8672    0.6597   -7.0444 C.2       5 UNK         0.5014 
     38 O          29.5199    0.6674   -8.0866 O.2       5 UNK        -0.5248 
     39 N          28.8760    1.6705   -6.1637 N.am      6 UNK        -0.4434 
     40 CA         29.6061    2.9292   -6.3451 C.3       6 UNK         0.0363 
     41 CB         29.4395    3.7971   -5.0883 C.3       6 UNK        -0.1936 
     42 C          29.1936    3.7171   -7.6052 C.2       6 UNK         0.5081 
     43 O          30.0162    4.4646   -8.1336 O.2       6 UNK        -0.5248 
     44 N          27.9530    3.5211   -8.0726 N.am      7 UNK        -0.4718 
     45 CA         27.4468    4.0549   -9.3353 C.3       7 UNK         0.0273 
     46 CB         26.0405    4.6365   -9.1117 C.3       7 UNK        -0.1935 
     47 C          27.4127    2.9687  -10.4216 C.2       7 UNK         0.5018 
     48 O          27.8193    3.2384  -11.5519 O.2       7 UNK        -0.5186 
     49 N          26.9059    1.7758  -10.0751 N.am      8 UNK        -0.4240 
     50 CA         26.6360    0.6879  -11.0192 C.3       8 UNK         0.0235 
     51 CB         25.6672   -0.3179  -10.3753 C.3       8 UNK        -0.2000 
     52 C          27.8912   -0.0297  -11.5440 C.2       8 UNK         0.4941 
     53 O          27.9138   -0.4010  -12.7184 O.2       8 UNK        -0.5273 
     54 N          28.8924   -0.2317  -10.6784 N.am      9 UNK        -0.4262 
     55 CA         30.1467   -0.9236  -10.9942 C.3       9 UNK         0.0264 
     56 CB         30.3858   -2.0415   -9.9637 C.3       9 UNK        -0.1955 
     57 C          31.3422    0.0415  -11.0198 C.2       9 UNK         0.5031 
     58 O          32.2616   -0.1815  -11.8078 O.2       9 UNK        -0.5390 
     59 N          31.2976    1.0823  -10.1731 N.am      10 UNK        -0.4204 
     60 CA         32.3141    2.1115   -9.9359 C.3       10 UNK         0.0237 
     61 CB         32.6354    2.9090  -11.2181 C.3       10 UNK        -0.1985 
     62 C          33.5612    1.5117   -9.2652 C.2       10 UNK         0.4970 
     63 O          34.5374    1.1907   -9.9457 O.2       10 UNK        -0.4914 
     64 N          33.4790    1.3534   -7.9370 N.am      11 UNK        -0.4285 
     65 CA         34.5358    0.8405   -7.0480 C.3       11 UNK         0.1007 
     66 C          35.8989    1.5714   -7.2118 C.2       11 UNK         0.5703 
     67 N          37.0051    0.8403   -7.1844 N.am      11 UNK        -0.7361 
     68 O          35.9600    2.7958   -7.3129 O.2       11 UNK        -0.4986 
     69 C69        34.0956    0.8982   -5.5604 C.3       12 UNK        -0.0947 
     70 S70        32.5517   -0.0086   -5.2183 S.3       12 UNK        -0.2240 
     71 C71        33.1791   -1.4637   -4.3180 C.3       12 UNK         0.0194 
     72 H72        27.8730   -5.2388    3.0524 H         1 UNK         0.0906 
     73 H73        27.1284   -6.6086    2.2248 H         1 UNK         0.0906 
     74 H74        28.7850   -6.1366    1.8376 H         1 UNK         0.0906 
     75 H75        27.1064   -3.3087    2.2898 H         1 UNK         0.3140 
     76 H76        26.4586   -1.6165    1.1010 H         1 UNK         0.1085 
     77 H77        27.5279   -2.9831   -1.4149 H         1 UNK         0.0836 
     78 H78        27.0178   -1.3265   -1.3147 H         1 UNK         0.0836 
     79 H79        31.0518   -2.9777    0.0503 H         1 UNK         0.0731 
     80 H80        29.6576   -3.9595   -0.2955 H         1 UNK         0.0731 
     81 H81        32.2341   -1.7380   -1.7587 H         1 UNK         0.1312 
     82 H82        31.5365   -3.0359   -5.7809 H         1 UNK         0.1406 
     83 H83        28.8985   -4.2911   -2.6431 H         1 UNK         0.1631 
     84 H84        28.7696   -5.2820   -4.9812 H         1 UNK         0.0717 
     85 H85        29.7381   -4.5960   -6.2646 H         1 UNK         0.0717 
     86 H86        29.6295   -1.8879   -6.6491 H         1 UNK         0.0934 
     87 H87        29.1138   -1.2819   -5.0887 H         1 UNK         0.0934 
     88 H88        27.6191   -0.9270   -7.7228 H         1 UNK         0.0739 
     89 H89        26.5404   -0.6856   -5.1647 H         1 UNK         0.3093 
     90 H90        24.9524    1.3173   -4.5542 H         1 UNK         0.0818 
     91 H91        22.7323    2.0677   -5.3973 H         1 UNK         0.0819 
     92 H92        24.0325    2.8845   -6.2459 H         1 UNK         0.0819 
     93 H93        23.1686    1.5726   -7.0339 H         1 UNK         0.0819 
     94 H94        23.0539   -0.5286   -5.7443 H         1 UNK         0.3041 
     95 H95        22.4070   -2.2500   -4.2895 H         1 UNK         0.0784 
     96 H96        23.5384   -3.0586   -6.3858 H         1 UNK         0.0793 
     97 H97        24.7841   -3.8475   -5.4276 H         1 UNK         0.0793 
     98 H98        23.1181   -4.4165   -5.3549 H         1 UNK         0.0793 
     99 H99        24.7068   -3.1267   -2.6802 H         1 UNK         0.3024 
    100 H100       22.6667   -4.0380   -0.0737 H         1 UNK         0.1171 
    101 H101       23.6199   -6.3317    0.0650 H         1 UNK         0.0786 
    102 H102       24.0383   -6.2877   -1.6477 H         1 UNK         0.0786 
    103 H103       22.3520   -6.2767   -1.1478 H         1 UNK         0.0786 
    104 H104       25.4513   -4.6172   -0.4906 H         1 UNK         0.2977 
    105 H105       28.3130    1.5864   -5.3301 H         1 UNK         0.3127 
    106 H106       30.6641    2.6807   -6.4504 H         1 UNK         0.0770 
    107 H107       28.3948    4.0561   -4.9118 H         1 UNK         0.0814 
    108 H108       29.9950    4.7313   -5.1835 H         1 UNK         0.0814 
    109 H109       29.8167    3.2883   -4.2009 H         1 UNK         0.0814 
    110 H110       27.3483    2.8654   -7.5898 H         1 UNK         0.2983 
    111 H111       28.0907    4.8614   -9.6934 H         1 UNK         0.0947 
    112 H112       25.6307    5.0353  -10.0407 H         1 UNK         0.0806 
    113 H113       26.0624    5.4537   -8.3906 H         1 UNK         0.0806 
    114 H114       25.3419    3.8845   -8.7420 H         1 UNK         0.0806 
    115 H115       26.5642    1.6472   -9.1241 H         1 UNK         0.3000 
    116 H116       26.1308    1.1231  -11.8845 H         1 UNK         0.0850 
    117 H117       25.4082   -1.1135  -11.0753 H         1 UNK         0.0810 
    118 H118       24.7368    0.1647  -10.0751 H         1 UNK         0.0810 
    119 H119       26.0969   -0.7892   -9.4920 H         1 UNK         0.0810 
    120 H120       28.8143    0.1406   -9.7370 H         1 UNK         0.3040 
    121 H121       30.0833   -1.3893  -11.9799 H         1 UNK         0.0766 
    122 H122       31.2792   -2.6147  -10.2149 H         1 UNK         0.0812 
    123 H123       30.5283   -1.6467   -8.9579 H         1 UNK         0.0812 
    124 H124       29.5497   -2.7404   -9.9347 H         1 UNK         0.0812 
    125 H125       30.5364    1.0780   -9.4960 H         1 UNK         0.3205 
    126 H126       31.8740    2.8160   -9.2292 H         1 UNK         0.0754 
    127 H127       33.3212    3.7284  -10.9998 H         1 UNK         0.0769 
    128 H128       31.7331    3.3456  -11.6466 H         1 UNK         0.0769 
    129 H129       33.1057    2.2923  -11.9842 H         1 UNK         0.0769 
    130 H130       32.6259    1.6202   -7.4708 H         1 UNK         0.2981 
    131 H131       34.6817   -0.2070   -7.3184 H         1 UNK         0.0541 
    132 H132       37.8977    1.3005   -7.2720 H         1 UNK         0.3459 
    133 H133       36.9668   -0.1625   -7.0884 H         1 UNK         0.3459 
    134 H134       33.9426    1.9341   -5.2517 H         1 UNK         0.0612 
    135 H135       34.8842    0.5077   -4.9143 H         1 UNK         0.0612 
    136 H136       33.8201   -2.0518   -4.9764 H         1 UNK         0.0624 
    137 H137       33.7990   -1.1360   -3.4820 H         1 UNK         0.0624 
@<TRIPOS>BOND
     1    1    2 1    
     2    1   72 1    
     3    1   73 1    
     4    1   74 1    
     5    2    3 2    
     6    2    4 am   BACKBONE|DICT|INTERRES
     7    4    5 1    
     8    4   75 1    
     9    5    6 1    
    10    5   35 1    
    11    5   76 1    
    12    6    7 1    
    13    6   77 1    
    14    6   78 1    
    15    7    8 1    
    16    8    9 1    
    17    8   79 1    
    18    8   80 1    
    19    9   10 ar   
    20    9   14 ar   
    21   10   11 ar   
    22   10   81 1    
    23   11   12 ar   
    24   11   71 1    
    25   12   13 ar   
    26   12   82 1    
    27   13   14 ar   
    28   13   15 1    
    29   14   83 1    
    30   15   16 1    
    31   15   84 1    
    32   15   85 1    
    33   16   17 1    
    34   17   18 1    
    35   17   86 1    
    36   17   87 1    
    37   18   19 1    
    38   18   37 1    
    39   18   88 1    
    40   19   20 am   BACKBONE|DICT|INTERRES
    41   19   89 1    
    42   20   21 2    
    43   20   22 1    
    44   22   23 1    
    45   22   24 1    
    46   22   90 1    
    47   23   91 1    
    48   23   92 1    
    49   23   93 1    
    50   24   25 am   BACKBONE|DICT|INTERRES
    51   24   94 1    
    52   25   26 2    
    53   25   27 1    
    54   27   28 1    
    55   27   29 1    
    56   27   95 1    
    57   28   96 1    
    58   28   97 1    
    59   28   98 1    
    60   29   30 am   BACKBONE|DICT|INTERRES
    61   29   99 1    
    62   30   31 2    
    63   30   32 1    
    64   32   33 1    
    65   32   34 1    
    66   32  100 1    
    67   33  101 1    
    68   33  102 1    
    69   33  103 1    
    70   34   35 am   BACKBONE|DICT|INTERRES
    71   34  104 1    
    72   35   36 2    
    73   37   38 2    
    74   37   39 am   BACKBONE|DICT|INTERRES
    75   39   40 1    
    76   39  105 1    
    77   40   41 1    
    78   40   42 1    
    79   40  106 1    
    80   41  107 1    
    81   41  108 1    
    82   41  109 1    
    83   42   43 2    
    84   42   44 am   BACKBONE|DICT|INTERRES
    85   44   45 1    
    86   44  110 1    
    87   45   46 1    
    88   45   47 1    
    89   45  111 1    
    90   46  112 1    
    91   46  113 1    
    92   46  114 1    
    93   47   48 2    
    94   47   49 am   BACKBONE|DICT|INTERRES
    95   49   50 1    
    96   49  115 1    
    97   50   51 1    
    98   50   52 1    
    99   50  116 1    
   100   51  117 1    
   101   51  118 1    
   102   51  119 1    
   103   52   53 2    
   104   52   54 am   BACKBONE|DICT|INTERRES
   105   54   55 1    
   106   54  120 1    
   107   55   56 1    
   108   55   57 1    
   109   55  121 1    
   110   56  122 1    
   111   56  123 1    
   112   56  124 1    
   113   57   58 2    
   114   57   59 am   BACKBONE|DICT|INTERRES
   115   59   60 1    
   116   59  125 1    
   117   60   61 1    
   118   60   62 1    
   119   60  126 1    
   120   61  127 1    
   121   61  128 1    
   122   61  129 1    
   123   62   63 2    
   124   62   64 am   BACKBONE|DICT|INTERRES
   125   64   65 1    
   126   64  130 1    
   127   65   66 1    
   128   65   69 1    
   129   65  131 1    
   130   66   67 am   BACKBONE|DICT|INTERRES
   131   66   68 2    
   132   67  132 1    
   133   67  133 1    
   134   69   70 1    
   135   69  134 1    
   136   69  135 1    
   137   70   71 1    
   138   71  136 1    
   139   71  137 1    
@<TRIPOS>SUBSTRUCTURE
     1 UNK         1 GROUP             0       ****    0 ROOT    
