@<TRIPOS>MOLECULE
3R137
137   139    1
SMALL
USER_CHARGES


@<TRIPOS>ATOM
      1 CA         24.6677   -6.5696   -4.1183 C.3       0 UNK        -0.2020 
      2 C          25.6823   -5.5001   -3.7443 C.2       0 UNK         0.4855 
      3 O          26.0448   -4.6836   -4.5900 O.2       0 UNK        -0.5197 
      4 N          26.1296   -5.4911   -2.4805 N.am      1 UNK        -0.4892 
      5 CA         27.1199   -4.5627   -1.9157 C.3       1 UNK         0.0835 
      6 C6         28.5489   -4.8113   -2.4794 C.3       12 UNK        -0.0855 
      7 S7         29.8390   -4.5253   -1.2233 S.3       12 UNK        -0.2931 
      8 C8         31.2570   -4.0059   -2.2510 C.3       12 UNK         0.0378 
      9 C9         31.1496   -2.5830   -2.7950 C.ar      12 UNK        -0.0802 
     10 C10        31.5927   -2.2991   -4.0906 C.ar      12 UNK        -0.0944 
     11 C11        31.5406   -0.9942   -4.5925 C.ar      12 UNK        -0.0787 
     12 C12        31.0204    0.0310   -3.7981 C.ar      12 UNK        -0.0862 
     13 C13        30.5696   -0.2382   -2.5039 C.ar      12 UNK        -0.0733 
     14 C14        30.6543   -1.5411   -2.0042 C.ar      12 UNK        -0.0832 
     15 C15        29.9983    0.8683   -1.6310 C.3       12 UNK         0.0240 
     16 S16        28.2463    0.5583   -1.2509 S.3       12 UNK        -0.2522 
     17 C17        27.3549    1.7061   -2.3472 C.3       12 UNK        -0.0967 
     18 CA         27.6321    1.5987   -3.8722 C.3       5 UNK         0.0660 
     19 N          27.4950    0.2458   -4.4326 N.am      5 UNK        -0.4015 
     20 C          27.7668   -0.0688   -5.7129 C.2       4 UNK         0.4946 
     21 O          28.2435    0.7217   -6.5284 O.2       4 UNK        -0.5353 
     22 CA         27.3870   -1.4764   -6.2016 C.3       4 UNK         0.0277 
     23 CB         28.4965   -2.4866   -5.8821 C.3       4 UNK        -0.1981 
     24 N          26.1069   -1.9333   -5.6564 N.am      4 UNK        -0.4209 
     25 C          24.9270   -1.3539   -5.9266 C.2       3 UNK         0.4942 
     26 O          24.7875   -0.4232   -6.7182 O.2       3 UNK        -0.5208 
     27 CA         23.7027   -1.8454   -5.1391 C.3       3 UNK         0.0250 
     28 CB         23.1057   -3.1138   -5.7687 C.3       3 UNK        -0.1990 
     29 N          24.0156   -2.0726   -3.7272 N.am      3 UNK        -0.4232 
     30 C          24.3540   -1.0983   -2.8693 C.2       2 UNK         0.4993 
     31 O          24.3643    0.0971   -3.1642 O.2       2 UNK        -0.5286 
     32 CA         24.7898   -1.5274   -1.4579 C.3       2 UNK         0.0209 
     33 CB         23.5857   -1.5422   -0.5033 C.3       2 UNK        -0.1931 
     34 N          25.4607   -2.8321   -1.4228 N.am      2 UNK        -0.4546 
     35 C          26.6336   -3.0979   -2.0184 C.2       1 UNK         0.5154 
     36 O          27.2564   -2.2645   -2.6767 O.2       1 UNK        -0.5181 
     37 C          26.7328    2.6137   -4.6079 C.2       5 UNK         0.5014 
     38 O          27.2137    3.6794   -4.9951 O.2       5 UNK        -0.5248 
     39 N          25.4469    2.2665   -4.7714 N.am      6 UNK        -0.4434 
     40 CA         24.4316    3.0986   -5.4201 C.3       6 UNK         0.0363 
     41 CB         23.0423    2.4775   -5.2034 C.3       6 UNK        -0.1936 
     42 C          24.6983    3.3255   -6.9167 C.2       6 UNK         0.5081 
     43 O          24.5626    4.4547   -7.3892 O.2       6 UNK        -0.5248 
     44 N          25.0713    2.2576   -7.6343 N.am      7 UNK        -0.4718 
     45 CA         25.3978    2.2991   -9.0613 C.3       7 UNK         0.0273 
     46 CB         25.3790    0.8698   -9.6282 C.3       7 UNK        -0.1935 
     47 C          26.7526    2.9618   -9.3575 C.2       7 UNK         0.5018 
     48 O          26.9154    3.5138  -10.4465 O.2       7 UNK        -0.5186 
     49 N          27.6966    2.8636   -8.4074 N.am      8 UNK        -0.4240 
     50 CA         29.1152    3.2241   -8.5232 C.3       8 UNK         0.0235 
     51 CB         29.2949    4.7491   -8.6799 C.3       8 UNK        -0.2000 
     52 C          29.8112    2.4041   -9.6279 C.2       8 UNK         0.4941 
     53 O          30.5500    2.9595  -10.4440 O.2       8 UNK        -0.5273 
     54 N          29.5227    1.0974   -9.6464 N.am      9 UNK        -0.4262 
     55 CA         29.9923    0.1324  -10.6369 C.3       9 UNK         0.0264 
     56 CB         28.7706   -0.5073  -11.3181 C.3       9 UNK        -0.1955 
     57 C          30.8333   -0.9367   -9.9334 C.2       9 UNK         0.5031 
     58 O          30.5458   -1.2651   -8.7814 O.2       9 UNK        -0.5390 
     59 N          31.8299   -1.4715  -10.6530 N.am      10 UNK        -0.4204 
     60 CA         32.8727   -2.3885  -10.1721 C.3       10 UNK         0.0237 
     61 CB         32.2688   -3.7164   -9.6543 C.3       10 UNK        -0.1985 
     62 C          33.8224   -1.6896   -9.1749 C.2       10 UNK         0.4970 
     63 O          34.0244   -0.4791   -9.2966 O.2       10 UNK        -0.4914 
     64 N          34.4045   -2.4659   -8.2481 N.am      11 UNK        -0.4285 
     65 CA         35.3761   -2.0633   -7.2133 C.3       11 UNK         0.1007 
     66 C          36.5750   -1.2072   -7.7293 C.2       11 UNK         0.5703 
     67 N          37.0817   -0.2568   -6.9544 N.am      11 UNK        -0.7361 
     68 O          37.1000   -1.4535   -8.8141 O.2       11 UNK        -0.4986 
     69 C69        34.7043   -1.5899   -5.8869 C.3       12 UNK        -0.0947 
     70 S70        33.7348   -0.0453   -5.9943 S.3       12 UNK        -0.2240 
     71 C71        32.0310   -0.6855   -5.9977 C.3       12 UNK         0.0194 
     72 H72        25.0272   -7.1424   -4.9727 H         1 UNK         0.0906 
     73 H73        24.4844   -7.2642   -3.2987 H         1 UNK         0.0906 
     74 H74        23.7191   -6.1091   -4.3923 H         1 UNK         0.0906 
     75 H75        25.7777   -6.1859   -1.8352 H         1 UNK         0.3140 
     76 H76        27.1398   -4.7915   -0.8486 H         1 UNK         0.1085 
     77 H77        28.7432   -4.2233   -3.3761 H         1 UNK         0.0836 
     78 H78        28.6521   -5.8515   -2.7921 H         1 UNK         0.0836 
     79 H79        31.3788   -4.7223   -3.0651 H         1 UNK         0.0731 
     80 H80        32.1627   -4.0706   -1.6468 H         1 UNK         0.0731 
     81 H81        31.9836   -3.0948   -4.7093 H         1 UNK         0.1312 
     82 H82        30.9705    1.0368   -4.1914 H         1 UNK         0.1406 
     83 H83        30.3122   -1.7435   -0.9987 H         1 UNK         0.1631 
     84 H84        30.1197    1.8486   -2.0936 H         1 UNK         0.0717 
     85 H85        30.5577    0.9015   -0.6952 H         1 UNK         0.0717 
     86 H86        26.2931    1.5629   -2.1409 H         1 UNK         0.0934 
     87 H87        27.5815    2.7174   -2.0028 H         1 UNK         0.0934 
     88 H88        28.6641    1.9045   -4.0497 H         1 UNK         0.0739 
     89 H89        27.1873   -0.4878   -3.8018 H         1 UNK         0.3093 
     90 H90        27.2796   -1.4327   -7.2876 H         1 UNK         0.0818 
     91 H91        29.4055   -2.2437   -6.4332 H         1 UNK         0.0819 
     92 H92        28.7509   -2.4761   -4.8234 H         1 UNK         0.0819 
     93 H93        28.2101   -3.5023   -6.1545 H         1 UNK         0.0819 
     94 H94        26.1362   -2.7265   -5.0213 H         1 UNK         0.3041 
     95 H95        22.9441   -1.0610   -5.1860 H         1 UNK         0.0784 
     96 H96        22.7969   -2.9234   -6.7974 H         1 UNK         0.0793 
     97 H97        23.8219   -3.9342   -5.7955 H         1 UNK         0.0793 
     98 H98        22.2240   -3.4522   -5.2242 H         1 UNK         0.0793 
     99 H99        24.0635   -3.0299   -3.4122 H         1 UNK         0.3024 
    100 H100       25.5011   -0.7794   -1.1011 H         1 UNK         0.1171 
    101 H101       23.8938   -1.7516    0.5212 H         1 UNK         0.0786 
    102 H102       23.0829   -0.5738   -0.4964 H         1 UNK         0.0786 
    103 H103       22.8473   -2.2908   -0.7935 H         1 UNK         0.0786 
    104 H104       24.9908   -3.5745   -0.9247 H         1 UNK         0.2977 
    105 H105       25.1244    1.3877   -4.3713 H         1 UNK         0.3127 
    106 H106       24.4453    4.0750   -4.9313 H         1 UNK         0.0770 
    107 H107       22.9718    1.4830   -5.6454 H         1 UNK         0.0814 
    108 H108       22.2640    3.0930   -5.6564 H         1 UNK         0.0814 
    109 H109       22.8093    2.3876   -4.1422 H         1 UNK         0.0814 
    110 H110       25.0978    1.3434   -7.1846 H         1 UNK         0.2983 
    111 H111       24.6275    2.8803   -9.5731 H         1 UNK         0.0947 
    112 H112       25.5940    0.8690  -10.6977 H         1 UNK         0.0806 
    113 H113       24.4038    0.4021   -9.4923 H         1 UNK         0.0806 
    114 H114       26.1235    0.2358   -9.1447 H         1 UNK         0.0806 
    115 H115       27.4662    2.3376   -7.5704 H         1 UNK         0.3000 
    116 H116       29.5833    2.9316   -7.5819 H         1 UNK         0.0850 
    117 H117       30.3502    5.0216   -8.6438 H         1 UNK         0.0810 
    118 H118       28.7922    5.2897   -7.8777 H         1 UNK         0.0810 
    119 H119       28.8991    5.1113   -9.6290 H         1 UNK         0.0810 
    120 H120       29.0062    0.7072   -8.8671 H         1 UNK         0.3040 
    121 H121       30.6048    0.6256  -11.3947 H         1 UNK         0.0766 
    122 H122       28.1550    0.2451  -11.8116 H         1 UNK         0.0812 
    123 H123       28.1405   -1.0369  -10.6019 H         1 UNK         0.0812 
    124 H124       29.0771   -1.2266  -12.0785 H         1 UNK         0.0812 
    125 H125       31.9759   -1.1156  -11.5876 H         1 UNK         0.3205 
    126 H126       33.4820   -2.6271  -11.0451 H         1 UNK         0.0754 
    127 H127       33.0356   -4.4819   -9.5321 H         1 UNK         0.0769 
    128 H128       31.5367   -4.1146  -10.3570 H         1 UNK         0.0769 
    129 H129       31.7688   -3.5926   -8.6927 H         1 UNK         0.0769 
    130 H130       34.1887   -3.4512   -8.2673 H         1 UNK         0.2981 
    131 H131       35.8636   -3.0040   -6.9552 H         1 UNK         0.0541 
    132 H132       36.6524   -0.0354   -6.0697 H         1 UNK         0.3459 
    133 H133       37.8723    0.2762   -7.2805 H         1 UNK         0.3459 
    134 H134       35.4562   -1.4603   -5.1073 H         1 UNK         0.0612 
    135 H135       34.0613   -2.3869   -5.5160 H         1 UNK         0.0612 
    136 H136       31.3751    0.0538   -6.4604 H         1 UNK         0.0624 
    137 H137       31.9775   -1.5762   -6.6244 H         1 UNK         0.0624 
@<TRIPOS>BOND
     1    1    2 1    
     2    1   72 1    
     3    1   73 1    
     4    1   74 1    
     5    2    3 2    
     6    2    4 am   BACKBONE|DICT|INTERRES
     7    4    5 1    
     8    4   75 1    
     9    5    6 1    
    10    5   35 1    
    11    5   76 1    
    12    6    7 1    
    13    6   77 1    
    14    6   78 1    
    15    7    8 1    
    16    8    9 1    
    17    8   79 1    
    18    8   80 1    
    19    9   10 ar   
    20    9   14 ar   
    21   10   11 ar   
    22   10   81 1    
    23   11   12 ar   
    24   11   71 1    
    25   12   13 ar   
    26   12   82 1    
    27   13   14 ar   
    28   13   15 1    
    29   14   83 1    
    30   15   16 1    
    31   15   84 1    
    32   15   85 1    
    33   16   17 1    
    34   17   18 1    
    35   17   86 1    
    36   17   87 1    
    37   18   19 1    
    38   18   37 1    
    39   18   88 1    
    40   19   20 am   BACKBONE|DICT|INTERRES
    41   19   89 1    
    42   20   21 2    
    43   20   22 1    
    44   22   23 1    
    45   22   24 1    
    46   22   90 1    
    47   23   91 1    
    48   23   92 1    
    49   23   93 1    
    50   24   25 am   BACKBONE|DICT|INTERRES
    51   24   94 1    
    52   25   26 2    
    53   25   27 1    
    54   27   28 1    
    55   27   29 1    
    56   27   95 1    
    57   28   96 1    
    58   28   97 1    
    59   28   98 1    
    60   29   30 am   BACKBONE|DICT|INTERRES
    61   29   99 1    
    62   30   31 2    
    63   30   32 1    
    64   32   33 1    
    65   32   34 1    
    66   32  100 1    
    67   33  101 1    
    68   33  102 1    
    69   33  103 1    
    70   34   35 am   BACKBONE|DICT|INTERRES
    71   34  104 1    
    72   35   36 2    
    73   37   38 2    
    74   37   39 am   BACKBONE|DICT|INTERRES
    75   39   40 1    
    76   39  105 1    
    77   40   41 1    
    78   40   42 1    
    79   40  106 1    
    80   41  107 1    
    81   41  108 1    
    82   41  109 1    
    83   42   43 2    
    84   42   44 am   BACKBONE|DICT|INTERRES
    85   44   45 1    
    86   44  110 1    
    87   45   46 1    
    88   45   47 1    
    89   45  111 1    
    90   46  112 1    
    91   46  113 1    
    92   46  114 1    
    93   47   48 2    
    94   47   49 am   BACKBONE|DICT|INTERRES
    95   49   50 1    
    96   49  115 1    
    97   50   51 1    
    98   50   52 1    
    99   50  116 1    
   100   51  117 1    
   101   51  118 1    
   102   51  119 1    
   103   52   53 2    
   104   52   54 am   BACKBONE|DICT|INTERRES
   105   54   55 1    
   106   54  120 1    
   107   55   56 1    
   108   55   57 1    
   109   55  121 1    
   110   56  122 1    
   111   56  123 1    
   112   56  124 1    
   113   57   58 2    
   114   57   59 am   BACKBONE|DICT|INTERRES
   115   59   60 1    
   116   59  125 1    
   117   60   61 1    
   118   60   62 1    
   119   60  126 1    
   120   61  127 1    
   121   61  128 1    
   122   61  129 1    
   123   62   63 2    
   124   62   64 am   BACKBONE|DICT|INTERRES
   125   64   65 1    
   126   64  130 1    
   127   65   66 1    
   128   65   69 1    
   129   65  131 1    
   130   66   67 am   BACKBONE|DICT|INTERRES
   131   66   68 2    
   132   67  132 1    
   133   67  133 1    
   134   69   70 1    
   135   69  134 1    
   136   69  135 1    
   137   70   71 1    
   138   71  136 1    
   139   71  137 1    
@<TRIPOS>SUBSTRUCTURE
     1 UNK         1 GROUP             0       ****    0 ROOT    
