@<TRIPOS>MOLECULE
3R137
137   139    1
SMALL
USER_CHARGES


@<TRIPOS>ATOM
      1 CA         24.5372   -7.3864   -6.1899 C.3       0 UNK        -0.2020 
      2 C          24.9589   -6.7094   -4.8943 C.2       0 UNK         0.4855 
      3 O          24.6083   -7.1838   -3.8131 O.2       0 UNK        -0.5197 
      4 N          25.7174   -5.6112   -4.9952 N.am      1 UNK        -0.4892 
      5 CA         26.1733   -4.7973   -3.8626 C.3       1 UNK         0.0835 
      6 C6         27.2823   -3.8022   -4.2832 C.3       12 UNK        -0.0855 
      7 S7         28.7534   -4.6422   -4.9580 S.3       12 UNK        -0.2931 
      8 C8         29.8646   -4.6656   -3.5166 C.3       12 UNK         0.0378 
      9 C9         30.4161   -3.2833   -3.1983 C.ar      12 UNK        -0.0802 
     10 C10        31.3875   -2.7128   -4.0245 C.ar      12 UNK        -0.0944 
     11 C11        31.9167   -1.4514   -3.7371 C.ar      12 UNK        -0.0787 
     12 C12        31.4718   -0.7608   -2.6057 C.ar      12 UNK        -0.0862 
     13 C13        30.5001   -1.3229   -1.7697 C.ar      12 UNK        -0.0733 
     14 C14        29.9768   -2.5842   -2.0703 C.ar      12 UNK        -0.0832 
     15 C15        30.0282   -0.5774   -0.5296 C.3       12 UNK         0.0240 
     16 S16        29.1044    0.9323   -0.9474 S.3       12 UNK        -0.2522 
     17 C17        27.6218    0.2665   -1.7903 C.3       12 UNK        -0.0967 
     18 CA         27.6979    0.1936   -3.3407 C.3       5 UNK         0.0660 
     19 N          26.3990   -0.1759   -3.9233 N.am      5 UNK        -0.4015 
     20 C          26.1587   -0.3234   -5.2384 C.2       4 UNK         0.4946 
     21 O          27.0477   -0.2703   -6.0891 O.2       4 UNK        -0.5353 
     22 CA         24.7118   -0.5643   -5.7131 C.3       4 UNK         0.0277 
     23 CB         24.6294   -1.7381   -6.7062 C.3       4 UNK        -0.1981 
     24 N          23.7678   -0.7857   -4.6162 N.am      4 UNK        -0.4209 
     25 C          23.1051    0.1881   -3.9734 C.2       3 UNK         0.4942 
     26 O          23.1798    1.3782   -4.2793 O.2       3 UNK        -0.5208 
     27 CA         22.2261   -0.2149   -2.7720 C.3       3 UNK         0.0250 
     28 CB         20.7488   -0.2917   -3.1902 C.3       3 UNK        -0.1990 
     29 N          22.6114   -1.4796   -2.1377 N.am      3 UNK        -0.4232 
     30 C          23.7981   -1.7282   -1.5670 C.2       2 UNK         0.4993 
     31 O          24.7012   -0.8956   -1.4885 O.2       2 UNK        -0.5286 
     32 CA         24.0572   -3.1588   -1.0581 C.3       2 UNK         0.0209 
     33 CB         22.7800   -4.0191   -0.9154 C.3       2 UNK        -0.1931 
     34 N          25.0505   -3.8539   -1.8901 N.am      2 UNK        -0.4546 
     35 C          24.9919   -4.0434   -3.2180 C.2       1 UNK         0.5154 
     36 O          24.0769   -3.6219   -3.9321 O.2       1 UNK        -0.5181 
     37 C          28.2277    1.4983   -3.9774 C.2       5 UNK         0.5014 
     38 O          27.4806    2.4742   -4.0768 O.2       5 UNK        -0.5248 
     39 N          29.4860    1.4564   -4.4371 N.am      6 UNK        -0.4434 
     40 CA         30.2276    2.4848   -5.1794 C.3       6 UNK         0.0363 
     41 CB         30.2850    3.8216   -4.4146 C.3       6 UNK        -0.1936 
     42 C          29.7659    2.6896   -6.6364 C.2       6 UNK         0.5081 
     43 O          30.5689    3.1498   -7.4488 O.2       6 UNK        -0.5248 
     44 N          28.5128    2.3468   -6.9595 N.am      7 UNK        -0.4718 
     45 CA         27.9474    2.4247   -8.3060 C.3       7 UNK         0.0273 
     46 CB         26.4181    2.5457   -8.2146 C.3       7 UNK        -0.1935 
     47 C          28.3433    1.2196   -9.1712 C.2       7 UNK         0.5018 
     48 O          28.5794    1.4004  -10.3666 O.2       7 UNK        -0.5186 
     49 N          28.4126    0.0261   -8.5607 N.am      8 UNK        -0.4240 
     50 CA         28.7765   -1.2575   -9.1711 C.3       8 UNK         0.0235 
     51 CB         28.7910   -2.3416   -8.0781 C.3       8 UNK        -0.2000 
     52 C          30.1261   -1.1934   -9.9074 C.2       8 UNK         0.4941 
     53 O          31.1728   -1.1860   -9.2611 O.2       8 UNK        -0.5273 
     54 N          30.0690   -1.0741  -11.2427 N.am      9 UNK        -0.4262 
     55 CA         31.1989   -0.8416  -12.1557 C.3       9 UNK         0.0264 
     56 CB         32.1068   -2.0885  -12.2248 C.3       9 UNK        -0.1955 
     57 C          31.9919    0.4510  -11.8511 C.2       9 UNK         0.5031 
     58 O          33.1715    0.5329  -12.1995 O.2       9 UNK        -0.5390 
     59 N          31.3324    1.4302  -11.2096 N.am      10 UNK        -0.4204 
     60 CA         31.8694    2.7065  -10.7250 C.3       10 UNK         0.0237 
     61 CB         32.1812    3.6455  -11.9101 C.3       10 UNK        -0.1985 
     62 C          33.0577    2.5436   -9.7523 C.2       10 UNK         0.4970 
     63 O          34.0290    3.2973   -9.8472 O.2       10 UNK        -0.4914 
     64 N          32.9724    1.5602   -8.8439 N.am      11 UNK        -0.4285 
     65 CA         34.0060    1.2640   -7.8385 C.3       11 UNK         0.1007 
     66 C          34.2373    2.3553   -6.7508 C.2       11 UNK         0.5703 
     67 N          33.3511    3.3283   -6.5790 N.am      11 UNK        -0.7361 
     68 O          35.2541    2.3249   -6.0615 O.2       11 UNK        -0.4986 
     69 C69        33.8292   -0.1512   -7.2301 C.3       12 UNK        -0.0947 
     70 S70        32.3023   -0.3731   -6.2507 S.3       12 UNK        -0.2240 
     71 C71        32.9888   -0.8618   -4.6401 C.3       12 UNK         0.0194 
     72 H72        24.9281   -6.8699   -7.0665 H         1 UNK         0.0906 
     73 H73        24.9000   -8.4137   -6.2121 H         1 UNK         0.0906 
     74 H74        23.4504   -7.4066   -6.2653 H         1 UNK         0.0906 
     75 H75        25.9798   -5.2685   -5.9078 H         1 UNK         0.3140 
     76 H76        26.5861   -5.4779   -3.1144 H         1 UNK         0.1085 
     77 H77        26.9163   -3.1241   -5.0540 H         1 UNK         0.0836 
     78 H78        27.5758   -3.1676   -3.4462 H         1 UNK         0.0836 
     79 H79        30.6953   -5.3413   -3.7258 H         1 UNK         0.0731 
     80 H80        29.3392   -5.0873   -2.6583 H         1 UNK         0.0731 
     81 H81        31.7306   -3.2510   -4.8980 H         1 UNK         0.1312 
     82 H82        31.8819    0.2121   -2.3695 H         1 UNK         0.1406 
     83 H83        29.2321   -3.0252   -1.4217 H         1 UNK         0.1631 
     84 H84        30.8960   -0.3028    0.0717 H         1 UNK         0.0717 
     85 H85        29.4081   -1.2144    0.1031 H         1 UNK         0.0717 
     86 H86        27.3962   -0.7206   -1.3842 H         1 UNK         0.0934 
     87 H87        26.7842    0.9024   -1.4974 H         1 UNK         0.0934 
     88 H88        28.3866   -0.6113   -3.6043 H         1 UNK         0.0739 
     89 H89        25.6258   -0.2430   -3.2715 H         1 UNK         0.3093 
     90 H90        24.4166    0.3357   -6.2563 H         1 UNK         0.0818 
     91 H91        25.2729   -1.5685   -7.5706 H         1 UNK         0.0819 
     92 H92        24.9349   -2.6803   -6.2540 H         1 UNK         0.0819 
     93 H93        23.6146   -1.8645   -7.0832 H         1 UNK         0.0819 
     94 H94        23.6702   -1.7469   -4.2968 H         1 UNK         0.3041 
     95 H95        22.3292    0.5715   -2.0212 H         1 UNK         0.0784 
     96 H96        20.4205    0.6469   -3.6392 H         1 UNK         0.0793 
     97 H97        20.5777   -1.0810   -3.9236 H         1 UNK         0.0793 
     98 H98        20.1019   -0.4814   -2.3334 H         1 UNK         0.0793 
     99 H99        21.9454   -2.2365   -2.1946 H         1 UNK         0.3024 
    100 H100       24.4944   -3.0478   -0.0641 H         1 UNK         0.1171 
    101 H101       22.0412   -3.5289   -0.2797 H         1 UNK         0.0786 
    102 H102       22.3087   -4.2300   -1.8761 H         1 UNK         0.0786 
    103 H103       23.0098   -4.9782   -0.4508 H         1 UNK         0.0786 
    104 H104       25.8570   -4.2032   -1.3911 H         1 UNK         0.2977 
    105 H105       29.9869    0.5842   -4.3279 H         1 UNK         0.3127 
    106 H106       31.2493    2.1111   -5.2330 H         1 UNK         0.0770 
    107 H107       29.3108    4.3083   -4.3650 H         1 UNK         0.0814 
    108 H108       30.9652    4.5183   -4.9057 H         1 UNK         0.0814 
    109 H109       30.6444    3.6807   -3.3953 H         1 UNK         0.0814 
    110 H110       27.9171    1.9725   -6.2314 H         1 UNK         0.2983 
    111 H111       28.3294    3.3241   -8.7948 H         1 UNK         0.0947 
    112 H112       25.9769    2.6518   -9.2066 H         1 UNK         0.0806 
    113 H113       26.1232    3.4196   -7.6335 H         1 UNK         0.0806 
    114 H114       25.9683    1.6675   -7.7514 H         1 UNK         0.0806 
    115 H115       28.1339   -0.0164   -7.5822 H         1 UNK         0.3000 
    116 H116       27.9964   -1.5145   -9.8901 H         1 UNK         0.0850 
    117 H117       29.0858   -3.3089   -8.4864 H         1 UNK         0.0810 
    118 H118       27.8065   -2.4670   -7.6273 H         1 UNK         0.0810 
    119 H119       29.4925   -2.0983   -7.2781 H         1 UNK         0.0810 
    120 H120       29.1542   -1.0388  -11.6725 H         1 UNK         0.3040 
    121 H121       30.7634   -0.6963  -13.1453 H         1 UNK         0.0766 
    122 H122       32.6346   -2.2557  -11.2853 H         1 UNK         0.0812 
    123 H123       32.8607   -1.9829  -13.0059 H         1 UNK         0.0812 
    124 H124       31.5323   -2.9865  -12.4516 H         1 UNK         0.0812 
    125 H125       30.3539    1.2658  -10.9788 H         1 UNK         0.3205 
    126 H126       31.0693    3.1680  -10.1447 H         1 UNK         0.0754 
    127 H127       32.4628    4.6391  -11.5592 H         1 UNK         0.0769 
    128 H128       31.3132    3.7670  -12.5580 H         1 UNK         0.0769 
    129 H129       33.0043    3.2691  -12.5185 H         1 UNK         0.0769 
    130 H130       32.1571    0.9615   -8.8269 H         1 UNK         0.2981 
    131 H131       34.9457    1.2308   -8.3932 H         1 UNK         0.0541 
    132 H132       33.5275    4.0375   -5.8868 H         1 UNK         0.3459 
    133 H133       32.4834    3.3323   -7.1054 H         1 UNK         0.3459 
    134 H134       34.6991   -0.4054   -6.6223 H         1 UNK         0.0612 
    135 H135       33.8122   -0.8909   -8.0320 H         1 UNK         0.0612 
    136 H136       33.4634    0.0042   -4.1759 H         1 UNK         0.0624 
    137 H137       33.7716   -1.6074   -4.7875 H         1 UNK         0.0624 
@<TRIPOS>BOND
     1    1    2 1    
     2    1   72 1    
     3    1   73 1    
     4    1   74 1    
     5    2    3 2    
     6    2    4 am   BACKBONE|DICT|INTERRES
     7    4    5 1    
     8    4   75 1    
     9    5    6 1    
    10    5   35 1    
    11    5   76 1    
    12    6    7 1    
    13    6   77 1    
    14    6   78 1    
    15    7    8 1    
    16    8    9 1    
    17    8   79 1    
    18    8   80 1    
    19    9   10 ar   
    20    9   14 ar   
    21   10   11 ar   
    22   10   81 1    
    23   11   12 ar   
    24   11   71 1    
    25   12   13 ar   
    26   12   82 1    
    27   13   14 ar   
    28   13   15 1    
    29   14   83 1    
    30   15   16 1    
    31   15   84 1    
    32   15   85 1    
    33   16   17 1    
    34   17   18 1    
    35   17   86 1    
    36   17   87 1    
    37   18   19 1    
    38   18   37 1    
    39   18   88 1    
    40   19   20 am   BACKBONE|DICT|INTERRES
    41   19   89 1    
    42   20   21 2    
    43   20   22 1    
    44   22   23 1    
    45   22   24 1    
    46   22   90 1    
    47   23   91 1    
    48   23   92 1    
    49   23   93 1    
    50   24   25 am   BACKBONE|DICT|INTERRES
    51   24   94 1    
    52   25   26 2    
    53   25   27 1    
    54   27   28 1    
    55   27   29 1    
    56   27   95 1    
    57   28   96 1    
    58   28   97 1    
    59   28   98 1    
    60   29   30 am   BACKBONE|DICT|INTERRES
    61   29   99 1    
    62   30   31 2    
    63   30   32 1    
    64   32   33 1    
    65   32   34 1    
    66   32  100 1    
    67   33  101 1    
    68   33  102 1    
    69   33  103 1    
    70   34   35 am   BACKBONE|DICT|INTERRES
    71   34  104 1    
    72   35   36 2    
    73   37   38 2    
    74   37   39 am   BACKBONE|DICT|INTERRES
    75   39   40 1    
    76   39  105 1    
    77   40   41 1    
    78   40   42 1    
    79   40  106 1    
    80   41  107 1    
    81   41  108 1    
    82   41  109 1    
    83   42   43 2    
    84   42   44 am   BACKBONE|DICT|INTERRES
    85   44   45 1    
    86   44  110 1    
    87   45   46 1    
    88   45   47 1    
    89   45  111 1    
    90   46  112 1    
    91   46  113 1    
    92   46  114 1    
    93   47   48 2    
    94   47   49 am   BACKBONE|DICT|INTERRES
    95   49   50 1    
    96   49  115 1    
    97   50   51 1    
    98   50   52 1    
    99   50  116 1    
   100   51  117 1    
   101   51  118 1    
   102   51  119 1    
   103   52   53 2    
   104   52   54 am   BACKBONE|DICT|INTERRES
   105   54   55 1    
   106   54  120 1    
   107   55   56 1    
   108   55   57 1    
   109   55  121 1    
   110   56  122 1    
   111   56  123 1    
   112   56  124 1    
   113   57   58 2    
   114   57   59 am   BACKBONE|DICT|INTERRES
   115   59   60 1    
   116   59  125 1    
   117   60   61 1    
   118   60   62 1    
   119   60  126 1    
   120   61  127 1    
   121   61  128 1    
   122   61  129 1    
   123   62   63 2    
   124   62   64 am   BACKBONE|DICT|INTERRES
   125   64   65 1    
   126   64  130 1    
   127   65   66 1    
   128   65   69 1    
   129   65  131 1    
   130   66   67 am   BACKBONE|DICT|INTERRES
   131   66   68 2    
   132   67  132 1    
   133   67  133 1    
   134   69   70 1    
   135   69  134 1    
   136   69  135 1    
   137   70   71 1    
   138   71  136 1    
   139   71  137 1    
@<TRIPOS>SUBSTRUCTURE
     1 UNK         1 GROUP             0       ****    0 ROOT    
