@<TRIPOS>MOLECULE
3R137
137   139    1
SMALL
USER_CHARGES


@<TRIPOS>ATOM
      1 CA         27.7901   -5.3055   -3.6759 C.3       0 UNK        -0.2020 
      2 C          27.1771   -4.6875   -2.4301 C.2       0 UNK         0.4855 
      3 O          25.9600   -4.5114   -2.3687 O.2       0 UNK        -0.5197 
      4 N          28.0119   -4.3392   -1.4426 N.am      1 UNK        -0.4892 
      5 CA         27.6677   -3.8329   -0.1017 C.3       1 UNK         0.0835 
      6 C6         28.8369   -3.9970    0.9288 C.3       12 UNK        -0.0855 
      7 S7         30.0369   -5.3408    0.5957 S.3       12 UNK        -0.2931 
      8 C8         31.4782   -4.3953   -0.0181 C.3       12 UNK         0.0378 
      9 C9         31.1963   -3.7682   -1.3771 C.ar      12 UNK        -0.0802 
     10 C10        31.4301   -4.4969   -2.5467 C.ar      12 UNK        -0.0944 
     11 C11        31.0935   -3.9648   -3.7952 C.ar      12 UNK        -0.0787 
     12 C12        30.5125   -2.6950   -3.8653 C.ar      12 UNK        -0.0862 
     13 C13        30.2664   -1.9588   -2.7023 C.ar      12 UNK        -0.0733 
     14 C14        30.6477   -2.4841   -1.4653 C.ar      12 UNK        -0.0832 
     15 C15        29.4946   -0.6487   -2.7701 C.3       12 UNK         0.0240 
     16 S16        30.3405    0.6189   -3.7592 S.3       12 UNK        -0.2522 
     17 C17        28.9618    1.7733   -4.0715 C.3       12 UNK        -0.0967 
     18 CA         28.3833    1.6055   -5.4977 C.3       5 UNK         0.0660 
     19 N          27.8270    0.2710   -5.7381 N.am      5 UNK        -0.4015 
     20 C          27.6354   -0.2571   -6.9537 C.2       4 UNK         0.4946 
     21 O          27.9379    0.3153   -8.0005 O.2       4 UNK        -0.5353 
     22 CA         26.9623   -1.6403   -7.0202 C.3       4 UNK         0.0277 
     23 CB         28.0057   -2.7675   -7.0100 C.3       4 UNK        -0.1981 
     24 N          25.9863   -1.8650   -5.9488 N.am      4 UNK        -0.4209 
     25 C          24.8208   -1.2113   -5.8577 C.2       3 UNK         0.4942 
     26 O          24.4571   -0.3503   -6.6571 O.2       3 UNK        -0.5208 
     27 CA         23.9270   -1.5446   -4.6530 C.3       3 UNK         0.0250 
     28 CB         23.2093   -2.8871   -4.8673 C.3       3 UNK        -0.1990 
     29 N          24.6095   -1.5570   -3.3529 N.am      3 UNK        -0.4232 
     30 C          25.3627   -0.5660   -2.8502 C.2       2 UNK         0.4993 
     31 O          25.7305    0.4177   -3.4917 O.2       2 UNK        -0.5286 
     32 CA         25.7911   -0.7002   -1.3871 C.3       2 UNK         0.0209 
     33 CB         24.6308   -0.3423   -0.4395 C.3       2 UNK        -0.1931 
     34 N          26.2967   -2.0442   -1.1151 N.am      2 UNK        -0.4546 
     35 C          27.1202   -2.3788   -0.1178 C.2       1 UNK         0.5154 
     36 O          27.4739   -1.5737    0.7461 O.2       1 UNK        -0.5181 
     37 C          27.3359    2.6891   -5.8132 C.2       5 UNK         0.5014 
     38 O          27.6792    3.6895   -6.4425 O.2       5 UNK        -0.5248 
     39 N          26.0720    2.4527   -5.4284 N.am      6 UNK        -0.4434 
     40 CA         24.9189    3.2929   -5.7692 C.3       6 UNK         0.0363 
     41 CB         23.6792    2.7967   -5.0084 C.3       6 UNK        -0.1936 
     42 C          24.6469    3.3497   -7.2843 C.2       6 UNK         0.5081 
     43 O          24.3042    4.4138   -7.7994 O.2       6 UNK        -0.5248 
     44 N          24.8500    2.2198   -7.9761 N.am      7 UNK        -0.4718 
     45 CA         24.8062    2.1019   -9.4376 C.3       7 UNK         0.0273 
     46 CB         24.6499    0.6184   -9.8112 C.3       7 UNK        -0.1935 
     47 C          26.0329    2.7068  -10.1521 C.2       7 UNK         0.5018 
     48 O          26.0130    2.8006  -11.3802 O.2       7 UNK        -0.5186 
     49 N          27.0665    3.0941   -9.3890 N.am      8 UNK        -0.4240 
     50 CA         28.3448    3.6642   -9.8261 C.3       8 UNK         0.0235 
     51 CB         28.1391    5.0482  -10.4793 C.3       8 UNK        -0.2000 
     52 C          29.1789    2.6996  -10.6910 C.2       8 UNK         0.4941 
     53 O          29.8157    3.1326  -11.6548 O.2       8 UNK        -0.5273 
     54 N          29.1776    1.4100  -10.3267 N.am      9 UNK        -0.4262 
     55 CA         30.0456    0.3886  -10.9130 C.3       9 UNK         0.0264 
     56 CB         29.4536   -0.9996  -10.6169 C.3       9 UNK        -0.1955 
     57 C          31.4739    0.4960  -10.3515 C.2       9 UNK         0.5031 
     58 O          31.6842    1.1037   -9.2975 O.2       9 UNK        -0.5390 
     59 N          32.4268   -0.1496  -11.0388 N.am      10 UNK        -0.4204 
     60 CA         33.8574   -0.1799  -10.6983 C.3       10 UNK         0.0237 
     61 CB         34.6168   -0.9533  -11.7892 C.3       10 UNK        -0.1985 
     62 C          34.1897   -0.7522   -9.3048 C.2       10 UNK         0.4970 
     63 O          35.2626   -0.4554   -8.7775 O.2       10 UNK        -0.4914 
     64 N          33.2717   -1.5423   -8.7332 N.am      11 UNK        -0.4285 
     65 CA         33.3186   -2.0211   -7.3449 C.3       11 UNK         0.1007 
     66 C          33.1474   -0.9006   -6.2744 C.2       11 UNK         0.5703 
     67 N          32.5792    0.2542   -6.6059 N.am      11 UNK        -0.7361 
     68 O          33.5616   -1.0733   -5.1317 O.2       11 UNK        -0.4986 
     69 C69        32.3054   -3.1789   -7.1373 C.3       12 UNK        -0.0947 
     70 S70        32.8571   -4.3981   -5.8984 S.3       12 UNK        -0.2240 
     71 C71        31.2970   -4.7970   -5.0535 C.3       12 UNK         0.0194 
     72 H72        27.1404   -6.0875   -4.0683 H         1 UNK         0.0906 
     73 H73        27.9201   -4.5500   -4.4481 H         1 UNK         0.0906 
     74 H74        28.7599   -5.7542   -3.4631 H         1 UNK         0.0906 
     75 H75        29.0062   -4.4762   -1.5762 H         1 UNK         0.3140 
     76 H76        26.8417   -4.4530    0.2535 H         1 UNK         0.1085 
     77 H77        28.4114   -4.1748    1.9179 H         1 UNK         0.0836 
     78 H78        29.4137   -3.0800    1.0469 H         1 UNK         0.0836 
     79 H79        32.3348   -5.0672   -0.0920 H         1 UNK         0.0731 
     80 H80        31.7570   -3.6298    0.7079 H         1 UNK         0.0731 
     81 H81        31.8507   -5.4915   -2.4824 H         1 UNK         0.1312 
     82 H82        30.2379   -2.2780   -4.8220 H         1 UNK         0.1406 
     83 H83        30.4581   -1.9156   -0.5656 H         1 UNK         0.1631 
     84 H84        29.3105   -0.2490   -1.7716 H         1 UNK         0.0717 
     85 H85        28.5155   -0.8576   -3.2003 H         1 UNK         0.0717 
     86 H86        28.1873    1.6491   -3.3121 H         1 UNK         0.0934 
     87 H87        29.3502    2.7853   -3.9401 H         1 UNK         0.0934 
     88 H88        29.2073    1.7505   -6.2011 H         1 UNK         0.0739 
     89 H89        27.4707   -0.2198   -4.9321 H         1 UNK         0.3093 
     90 H90        26.4308   -1.6895   -7.9730 H         1 UNK         0.0818 
     91 H91        28.7747   -2.6041   -7.7651 H         1 UNK         0.0819 
     92 H92        28.5035   -2.8440   -6.0468 H         1 UNK         0.0819 
     93 H93        27.5456   -3.7322   -7.2245 H         1 UNK         0.0819 
     94 H94        26.2019   -2.5657   -5.2554 H         1 UNK         0.3041 
     95 H95        23.1658   -0.7636   -4.5996 H         1 UNK         0.0784 
     96 H96        22.6963   -2.9085   -5.8301 H         1 UNK         0.0793 
     97 H97        23.9054   -3.7269   -4.8485 H         1 UNK         0.0793 
     98 H98        22.4557   -3.0609   -4.0989 H         1 UNK         0.0793 
     99 H99        24.3726   -2.3278   -2.7444 H         1 UNK         0.3024 
    100 H100       26.6013    0.0148   -1.2252 H         1 UNK         0.1171 
    101 H101       24.9592   -0.3166    0.5996 H         1 UNK         0.0786 
    102 H102       24.2263    0.6438   -0.6724 H         1 UNK         0.0786 
    103 H103       23.8118   -1.0587   -0.5125 H         1 UNK         0.0786 
    104 H104       26.0670   -2.7817   -1.7782 H         1 UNK         0.2977 
    105 H105       25.8824    1.6298   -4.8578 H         1 UNK         0.3127 
    106 H106       25.1407    4.3087   -5.4352 H         1 UNK         0.0770 
    107 H107       23.4118    1.7785   -5.2920 H         1 UNK         0.0814 
    108 H108       22.8158    3.4306   -5.2144 H         1 UNK         0.0814 
    109 H109       23.8433    2.8103   -3.9307 H         1 UNK         0.0814 
    110 H110       25.0319    1.3636   -7.4594 H         1 UNK         0.2983 
    111 H111       23.9268    2.6402   -9.7976 H         1 UNK         0.0947 
    112 H112       25.5124    0.0328   -9.4923 H         1 UNK         0.0806 
    113 H113       24.5518    0.4929  -10.8903 H         1 UNK         0.0806 
    114 H114       23.7611    0.1841   -9.3531 H         1 UNK         0.0806 
    115 H115       26.9783    2.9692   -8.3880 H         1 UNK         0.3000 
    116 H116       28.9274    3.8189   -8.9167 H         1 UNK         0.0850 
    117 H117       29.0958    5.5343  -10.6737 H         1 UNK         0.0810 
    118 H118       27.5664    5.7108   -9.8303 H         1 UNK         0.0810 
    119 H119       27.6139    4.9736  -11.4319 H         1 UNK         0.0810 
    120 H120       28.6654    1.1320   -9.4904 H         1 UNK         0.3040 
    121 H121       30.0795    0.5338  -11.9950 H         1 UNK         0.0766 
    122 H122       29.9999   -1.7841  -11.1417 H         1 UNK         0.0812 
    123 H123       28.4124   -1.0639  -10.9336 H         1 UNK         0.0812 
    124 H124       29.4931   -1.2315   -9.5529 H         1 UNK         0.0812 
    125 H125       32.1611   -0.6353  -11.8840 H         1 UNK         0.3205 
    126 H126       34.2103    0.8535  -10.7053 H         1 UNK         0.0754 
    127 H127       35.6886   -0.9680  -11.5850 H         1 UNK         0.0769 
    128 H128       34.4843   -0.4937  -12.7689 H         1 UNK         0.0769 
    129 H129       34.2839   -1.9901  -11.8550 H         1 UNK         0.0769 
    130 H130       32.4208   -1.7267   -9.2405 H         1 UNK         0.2981 
    131 H131       34.3235   -2.4244   -7.2043 H         1 UNK         0.0541 
    132 H132       32.4696    0.9587   -5.8950 H         1 UNK         0.3459 
    133 H133       32.2641    0.4409   -7.5531 H         1 UNK         0.3459 
    134 H134       31.3164   -2.7913   -6.8883 H         1 UNK         0.0612 
    135 H135       32.1743   -3.7387   -8.0648 H         1 UNK         0.0612 
    136 H136       30.4535   -4.6710   -5.7338 H         1 UNK         0.0624 
    137 H137       31.3116   -5.8571   -4.7960 H         1 UNK         0.0624 
@<TRIPOS>BOND
     1    1    2 1    
     2    1   72 1    
     3    1   73 1    
     4    1   74 1    
     5    2    3 2    
     6    2    4 am   BACKBONE|DICT|INTERRES
     7    4    5 1    
     8    4   75 1    
     9    5    6 1    
    10    5   35 1    
    11    5   76 1    
    12    6    7 1    
    13    6   77 1    
    14    6   78 1    
    15    7    8 1    
    16    8    9 1    
    17    8   79 1    
    18    8   80 1    
    19    9   10 ar   
    20    9   14 ar   
    21   10   11 ar   
    22   10   81 1    
    23   11   12 ar   
    24   11   71 1    
    25   12   13 ar   
    26   12   82 1    
    27   13   14 ar   
    28   13   15 1    
    29   14   83 1    
    30   15   16 1    
    31   15   84 1    
    32   15   85 1    
    33   16   17 1    
    34   17   18 1    
    35   17   86 1    
    36   17   87 1    
    37   18   19 1    
    38   18   37 1    
    39   18   88 1    
    40   19   20 am   BACKBONE|DICT|INTERRES
    41   19   89 1    
    42   20   21 2    
    43   20   22 1    
    44   22   23 1    
    45   22   24 1    
    46   22   90 1    
    47   23   91 1    
    48   23   92 1    
    49   23   93 1    
    50   24   25 am   BACKBONE|DICT|INTERRES
    51   24   94 1    
    52   25   26 2    
    53   25   27 1    
    54   27   28 1    
    55   27   29 1    
    56   27   95 1    
    57   28   96 1    
    58   28   97 1    
    59   28   98 1    
    60   29   30 am   BACKBONE|DICT|INTERRES
    61   29   99 1    
    62   30   31 2    
    63   30   32 1    
    64   32   33 1    
    65   32   34 1    
    66   32  100 1    
    67   33  101 1    
    68   33  102 1    
    69   33  103 1    
    70   34   35 am   BACKBONE|DICT|INTERRES
    71   34  104 1    
    72   35   36 2    
    73   37   38 2    
    74   37   39 am   BACKBONE|DICT|INTERRES
    75   39   40 1    
    76   39  105 1    
    77   40   41 1    
    78   40   42 1    
    79   40  106 1    
    80   41  107 1    
    81   41  108 1    
    82   41  109 1    
    83   42   43 2    
    84   42   44 am   BACKBONE|DICT|INTERRES
    85   44   45 1    
    86   44  110 1    
    87   45   46 1    
    88   45   47 1    
    89   45  111 1    
    90   46  112 1    
    91   46  113 1    
    92   46  114 1    
    93   47   48 2    
    94   47   49 am   BACKBONE|DICT|INTERRES
    95   49   50 1    
    96   49  115 1    
    97   50   51 1    
    98   50   52 1    
    99   50  116 1    
   100   51  117 1    
   101   51  118 1    
   102   51  119 1    
   103   52   53 2    
   104   52   54 am   BACKBONE|DICT|INTERRES
   105   54   55 1    
   106   54  120 1    
   107   55   56 1    
   108   55   57 1    
   109   55  121 1    
   110   56  122 1    
   111   56  123 1    
   112   56  124 1    
   113   57   58 2    
   114   57   59 am   BACKBONE|DICT|INTERRES
   115   59   60 1    
   116   59  125 1    
   117   60   61 1    
   118   60   62 1    
   119   60  126 1    
   120   61  127 1    
   121   61  128 1    
   122   61  129 1    
   123   62   63 2    
   124   62   64 am   BACKBONE|DICT|INTERRES
   125   64   65 1    
   126   64  130 1    
   127   65   66 1    
   128   65   69 1    
   129   65  131 1    
   130   66   67 am   BACKBONE|DICT|INTERRES
   131   66   68 2    
   132   67  132 1    
   133   67  133 1    
   134   69   70 1    
   135   69  134 1    
   136   69  135 1    
   137   70   71 1    
   138   71  136 1    
   139   71  137 1    
@<TRIPOS>SUBSTRUCTURE
     1 UNK         1 GROUP             0       ****    0 ROOT    
