@<TRIPOS>MOLECULE
3R137
137   139    1
SMALL
USER_CHARGES


@<TRIPOS>ATOM
      1 CA         23.2098   -7.1550   -1.3721 C.3       0 UNK        -0.2020 
      2 C          24.6624   -6.7274   -1.2249 C.2       0 UNK         0.4855 
      3 O          25.2288   -6.8514   -0.1389 O.2       0 UNK        -0.5197 
      4 N          25.2699   -6.2287   -2.3104 N.am      1 UNK        -0.4892 
      5 CA         26.6532   -5.7320   -2.3442 C.3       1 UNK         0.0835 
      6 C6         27.1535   -5.5813   -3.8060 C.3       12 UNK        -0.0855 
      7 S7         28.9389   -5.9170   -3.9889 S.3       12 UNK        -0.2931 
      8 C8         29.4644   -4.6027   -5.1393 C.3       12 UNK         0.0378 
      9 C9         30.2738   -3.5180   -4.4416 C.ar      12 UNK        -0.0802 
     10 C10        31.6110   -3.3041   -4.7922 C.ar      12 UNK        -0.0944 
     11 C11        32.3523   -2.2869   -4.1841 C.ar      12 UNK        -0.0787 
     12 C12        31.7556   -1.4959   -3.1996 C.ar      12 UNK        -0.0862 
     13 C13        30.4226   -1.7027   -2.8354 C.ar      12 UNK        -0.0733 
     14 C14        29.6857   -2.7110   -3.4634 C.ar      12 UNK        -0.0832 
     15 C15        29.7844   -0.8354   -1.7606 C.3       12 UNK         0.0240 
     16 S16        28.3907    0.1490   -2.3934 S.3       12 UNK        -0.2522 
     17 C17        29.1364    1.0480   -3.8001 C.3       12 UNK        -0.0967 
     18 CA         28.5993    0.5541   -5.1702 C.3       5 UNK         0.0660 
     19 N          27.1322    0.5104   -5.1804 N.am      5 UNK        -0.4015 
     20 C          26.3041    0.2960   -6.2107 C.2       4 UNK         0.4946 
     21 O          26.6802    0.1830   -7.3770 O.2       4 UNK        -0.5353 
     22 CA         24.7982    0.1758   -5.9028 C.3       4 UNK         0.0277 
     23 CB         24.2203   -1.1096   -6.5199 C.3       4 UNK        -0.1981 
     24 N          24.4796    0.1949   -4.4709 N.am      4 UNK        -0.4209 
     25 C          24.4314    1.2780   -3.6869 C.2       3 UNK         0.4942 
     26 O          24.6501    2.4183   -4.0946 O.2       3 UNK        -0.5208 
     27 CA         24.1319    1.0570   -2.1915 C.3       3 UNK         0.0250 
     28 CB         22.6165    0.9185   -1.9455 C.3       3 UNK        -0.1990 
     29 N          24.8860   -0.0412   -1.5605 N.am      3 UNK        -0.4232 
     30 C          24.8057   -1.3594   -1.7933 C.2       2 UNK         0.4993 
     31 O          24.0596   -1.8691   -2.6355 O.2       2 UNK        -0.5286 
     32 CA         25.7143   -2.2604   -0.9478 C.3       2 UNK         0.0209 
     33 CB         25.1723   -2.4132    0.4848 C.3       2 UNK        -0.1931 
     34 N          25.7814   -3.5704   -1.5860 N.am      2 UNK        -0.4546 
     35 C          26.8149   -4.4187   -1.5459 C.2       1 UNK         0.5154 
     36 O          27.8486   -4.2047   -0.9119 O.2       1 UNK        -0.5181 
     37 C          29.2018    1.3904   -6.3153 C.2       5 UNK         0.5014 
     38 O          30.0418    0.8899   -7.0635 O.2       5 UNK        -0.5248 
     39 N          28.7321    2.6365   -6.4508 N.am      6 UNK        -0.4434 
     40 CA         29.1932    3.5883   -7.4630 C.3       6 UNK         0.0363 
     41 CB         28.9898    5.0145   -6.9255 C.3       6 UNK        -0.1936 
     42 C          28.5013    3.4260   -8.8289 C.2       6 UNK         0.5081 
     43 O          28.9490    4.0462   -9.7933 O.2       6 UNK        -0.5248 
     44 N          27.4246    2.6329   -8.8974 N.am      7 UNK        -0.4718 
     45 CA         26.6115    2.4472  -10.0996 C.3       7 UNK         0.0273 
     46 CB         25.1224    2.4384   -9.7107 C.3       7 UNK        -0.1935 
     47 C          26.9866    1.1573  -10.8392 C.2       7 UNK         0.5018 
     48 O          27.2327    1.2009  -12.0448 O.2       7 UNK        -0.5186 
     49 N          27.0022    0.0347  -10.1102 N.am      8 UNK        -0.4240 
     50 CA         27.2406   -1.3011  -10.6509 C.3       8 UNK         0.0235 
     51 CB         26.4899   -2.3408   -9.7997 C.3       8 UNK        -0.2000 
     52 C          28.7377   -1.6204  -10.7206 C.2       8 UNK         0.4941 
     53 O          29.2332   -1.9706  -11.7923 O.2       8 UNK        -0.5273 
     54 N          29.4263   -1.5071   -9.5769 N.am      9 UNK        -0.4262 
     55 CA         30.8452   -1.8501   -9.4447 C.3       9 UNK         0.0264 
     56 CB         31.1067   -2.3511   -8.0167 C.3       9 UNK        -0.1955 
     57 C          31.7869   -0.6862   -9.7980 C.2       9 UNK         0.5031 
     58 O          32.9571   -0.9369  -10.0894 O.2       9 UNK        -0.5390 
     59 N          31.2673    0.5503   -9.7575 N.am      10 UNK        -0.4204 
     60 CA         31.9758    1.8251   -9.9359 C.3       10 UNK         0.0237 
     61 CB         32.5449    1.9564  -11.3650 C.3       10 UNK        -0.1985 
     62 C          33.0249    2.0904   -8.8353 C.2       10 UNK         0.4970 
     63 O          34.0412    2.7365   -9.0978 O.2       10 UNK        -0.4914 
     64 N          32.7566    1.5918   -7.6236 N.am      11 UNK        -0.4285 
     65 CA         33.5903    1.7700   -6.4308 C.3       11 UNK         0.1007 
     66 C          33.3379    3.1510   -5.7730 C.2       11 UNK         0.5703 
     67 N          34.3807    3.8027   -5.2769 N.am      11 UNK        -0.7361 
     68 O          32.2051    3.6171   -5.6707 O.2       11 UNK        -0.4986 
     69 C69        33.3602    0.6233   -5.4153 C.3       12 UNK        -0.0947 
     70 S70        33.9136   -0.9867   -6.0684 S.3       12 UNK        -0.2240 
     71 C71        33.7977   -2.0417   -4.5903 C.3       12 UNK         0.0194 
     72 H72        23.1041   -8.2128   -1.1325 H         1 UNK         0.0906 
     73 H73        22.5807   -6.5863   -0.6879 H         1 UNK         0.0906 
     74 H74        22.8375   -6.9982   -2.3843 H         1 UNK         0.0906 
     75 H75        24.7536   -6.1621   -3.1766 H         1 UNK         0.3140 
     76 H76        27.2670   -6.4844   -1.8429 H         1 UNK         0.1085 
     77 H77        26.6515   -6.3046   -4.4511 H         1 UNK         0.0836 
     78 H78        26.8932   -4.6030   -4.2147 H         1 UNK         0.0836 
     79 H79        30.0576   -5.0673   -5.9285 H         1 UNK         0.0731 
     80 H80        28.6076   -4.1523   -5.6415 H         1 UNK         0.0731 
     81 H81        32.0751   -3.9171   -5.5526 H         1 UNK         0.1312 
     82 H82        32.3297   -0.7129   -2.7233 H         1 UNK         0.1406 
     83 H83        28.6526   -2.8654   -3.1883 H         1 UNK         0.1631 
     84 H84        30.5175   -0.1605   -1.3159 H         1 UNK         0.0717 
     85 H85        29.4267   -1.4762   -0.9533 H         1 UNK         0.0717 
     86 H86        30.2238    0.9640   -3.7596 H         1 UNK         0.0934 
     87 H87        28.9171    2.1078   -3.6564 H         1 UNK         0.0934 
     88 H88        28.9386   -0.4732   -5.3174 H         1 UNK         0.0739 
     89 H89        26.7096    0.5878   -4.2675 H         1 UNK         0.3093 
     90 H90        24.3095    1.0298   -6.3761 H         1 UNK         0.0818 
     91 H91        23.1467   -1.1846   -6.3470 H         1 UNK         0.0819 
     92 H92        24.3728   -1.1324   -7.5999 H         1 UNK         0.0819 
     93 H93        24.6903   -2.0021   -6.1046 H         1 UNK         0.0819 
     94 H94        24.2863   -0.7009   -4.0248 H         1 UNK         0.3041 
     95 H95        24.4586    1.9629   -1.6779 H         1 UNK         0.0784 
     96 H96        22.0799    1.7877   -2.3282 H         1 UNK         0.0793 
     97 H97        22.1987    0.0397   -2.4375 H         1 UNK         0.0793 
     98 H98        22.3936    0.8437   -0.8812 H         1 UNK         0.0793 
     99 H99        25.5577    0.2632   -0.8686 H         1 UNK         0.3024 
    100 H100       26.7126   -1.8193   -0.9185 H         1 UNK         0.1171 
    101 H101       24.1701   -2.8439    0.4912 H         1 UNK         0.0786 
    102 H102       25.1185   -1.4497    0.9930 H         1 UNK         0.0786 
    103 H103       25.8155   -3.0579    1.0842 H         1 UNK         0.0786 
    104 H104       24.9804   -3.7885   -2.1659 H         1 UNK         0.2977 
    105 H105       28.0178    2.9596   -5.8139 H         1 UNK         0.3127 
    106 H106       30.2632    3.4420   -7.6235 H         1 UNK         0.0770 
    107 H107       27.9373    5.2318   -6.7398 H         1 UNK         0.0814 
    108 H108       29.3560    5.7567   -7.6362 H         1 UNK         0.0814 
    109 H109       29.5369    5.1663   -5.9946 H         1 UNK         0.0814 
    110 H110       27.1697    2.0818   -8.0867 H         1 UNK         0.2983 
    111 H111       26.7660    3.2805  -10.7892 H         1 UNK         0.0947 
    112 H112       24.4911    2.3019  -10.5898 H         1 UNK         0.0806 
    113 H113       24.8308    3.3811   -9.2474 H         1 UNK         0.0806 
    114 H114       24.8845    1.6360   -9.0114 H         1 UNK         0.0806 
    115 H115       26.8185    0.0972   -9.1082 H         1 UNK         0.3000 
    116 H116       26.8405   -1.3528  -11.6662 H         1 UNK         0.0850 
    117 H117       26.6680   -3.3513  -10.1701 H         1 UNK         0.0810 
    118 H118       25.4138   -2.1703   -9.8314 H         1 UNK         0.0810 
    119 H119       26.7979   -2.3162   -8.7536 H         1 UNK         0.0810 
    120 H120       28.9460   -1.2004   -8.7419 H         1 UNK         0.3040 
    121 H121       31.0779   -2.6707  -10.1271 H         1 UNK         0.0766 
    122 H122       32.1420   -2.6751   -7.9052 H         1 UNK         0.0812 
    123 H123       30.9281   -1.5772   -7.2699 H         1 UNK         0.0812 
    124 H124       30.4745   -3.2047   -7.7740 H         1 UNK         0.0812 
    125 H125       30.3111    0.6254   -9.4387 H         1 UNK         0.3205 
    126 H126       31.2250    2.6053   -9.8193 H         1 UNK         0.0754 
    127 H127       32.9284    2.9621  -11.5417 H         1 UNK         0.0769 
    128 H128       31.7772    1.7678  -12.1155 H         1 UNK         0.0769 
    129 H129       33.3661    1.2613  -11.5416 H         1 UNK         0.0769 
    130 H130       31.8571    1.1443   -7.4683 H         1 UNK         0.2981 
    131 H131       34.6367    1.7343   -6.7414 H         1 UNK         0.0541 
    132 H132       35.3132    3.4255   -5.3440 H         1 UNK         0.3459 
    133 H133       34.2319    4.6947   -4.8320 H         1 UNK         0.3459 
    134 H134       32.3037    0.5535   -5.1513 H         1 UNK         0.0612 
    135 H135       33.9046    0.8151   -4.4888 H         1 UNK         0.0612 
    136 H136       34.2852   -2.9945   -4.8012 H         1 UNK         0.0624 
    137 H137       34.3581   -1.5870   -3.7720 H         1 UNK         0.0624 
@<TRIPOS>BOND
     1    1    2 1    
     2    1   72 1    
     3    1   73 1    
     4    1   74 1    
     5    2    3 2    
     6    2    4 am   BACKBONE|DICT|INTERRES
     7    4    5 1    
     8    4   75 1    
     9    5    6 1    
    10    5   35 1    
    11    5   76 1    
    12    6    7 1    
    13    6   77 1    
    14    6   78 1    
    15    7    8 1    
    16    8    9 1    
    17    8   79 1    
    18    8   80 1    
    19    9   10 ar   
    20    9   14 ar   
    21   10   11 ar   
    22   10   81 1    
    23   11   12 ar   
    24   11   71 1    
    25   12   13 ar   
    26   12   82 1    
    27   13   14 ar   
    28   13   15 1    
    29   14   83 1    
    30   15   16 1    
    31   15   84 1    
    32   15   85 1    
    33   16   17 1    
    34   17   18 1    
    35   17   86 1    
    36   17   87 1    
    37   18   19 1    
    38   18   37 1    
    39   18   88 1    
    40   19   20 am   BACKBONE|DICT|INTERRES
    41   19   89 1    
    42   20   21 2    
    43   20   22 1    
    44   22   23 1    
    45   22   24 1    
    46   22   90 1    
    47   23   91 1    
    48   23   92 1    
    49   23   93 1    
    50   24   25 am   BACKBONE|DICT|INTERRES
    51   24   94 1    
    52   25   26 2    
    53   25   27 1    
    54   27   28 1    
    55   27   29 1    
    56   27   95 1    
    57   28   96 1    
    58   28   97 1    
    59   28   98 1    
    60   29   30 am   BACKBONE|DICT|INTERRES
    61   29   99 1    
    62   30   31 2    
    63   30   32 1    
    64   32   33 1    
    65   32   34 1    
    66   32  100 1    
    67   33  101 1    
    68   33  102 1    
    69   33  103 1    
    70   34   35 am   BACKBONE|DICT|INTERRES
    71   34  104 1    
    72   35   36 2    
    73   37   38 2    
    74   37   39 am   BACKBONE|DICT|INTERRES
    75   39   40 1    
    76   39  105 1    
    77   40   41 1    
    78   40   42 1    
    79   40  106 1    
    80   41  107 1    
    81   41  108 1    
    82   41  109 1    
    83   42   43 2    
    84   42   44 am   BACKBONE|DICT|INTERRES
    85   44   45 1    
    86   44  110 1    
    87   45   46 1    
    88   45   47 1    
    89   45  111 1    
    90   46  112 1    
    91   46  113 1    
    92   46  114 1    
    93   47   48 2    
    94   47   49 am   BACKBONE|DICT|INTERRES
    95   49   50 1    
    96   49  115 1    
    97   50   51 1    
    98   50   52 1    
    99   50  116 1    
   100   51  117 1    
   101   51  118 1    
   102   51  119 1    
   103   52   53 2    
   104   52   54 am   BACKBONE|DICT|INTERRES
   105   54   55 1    
   106   54  120 1    
   107   55   56 1    
   108   55   57 1    
   109   55  121 1    
   110   56  122 1    
   111   56  123 1    
   112   56  124 1    
   113   57   58 2    
   114   57   59 am   BACKBONE|DICT|INTERRES
   115   59   60 1    
   116   59  125 1    
   117   60   61 1    
   118   60   62 1    
   119   60  126 1    
   120   61  127 1    
   121   61  128 1    
   122   61  129 1    
   123   62   63 2    
   124   62   64 am   BACKBONE|DICT|INTERRES
   125   64   65 1    
   126   64  130 1    
   127   65   66 1    
   128   65   69 1    
   129   65  131 1    
   130   66   67 am   BACKBONE|DICT|INTERRES
   131   66   68 2    
   132   67  132 1    
   133   67  133 1    
   134   69   70 1    
   135   69  134 1    
   136   69  135 1    
   137   70   71 1    
   138   71  136 1    
   139   71  137 1    
@<TRIPOS>SUBSTRUCTURE
     1 UNK         1 GROUP             0       ****    0 ROOT    
