@<TRIPOS>MOLECULE
3R137
137   139    1
SMALL
USER_CHARGES


@<TRIPOS>ATOM
      1 CA         29.6745   -1.2708    0.7066 C.3       0 UNK        -0.2020 
      2 C          28.7104   -1.6828   -0.3951 C.2       0 UNK         0.4855 
      3 O          27.4978   -1.6491   -0.1856 O.2       0 UNK        -0.5197 
      4 N          29.2438   -2.0522   -1.5692 N.am      1 UNK        -0.4892 
      5 CA         28.5166   -2.5312   -2.7569 C.3       1 UNK         0.0835 
      6 C6         27.9626   -3.9759   -2.6007 C.3       12 UNK        -0.0855 
      7 S7         29.2912   -5.1974   -2.3117 S.3       12 UNK        -0.2931 
      8 C8         29.5080   -5.9413   -3.9677 C.3       12 UNK         0.0378 
      9 C9         29.8306   -4.9017   -5.0345 C.ar      12 UNK        -0.0802 
     10 C10        30.9713   -4.1039   -4.9153 C.ar      12 UNK        -0.0944 
     11 C11        31.2255   -3.0886   -5.8392 C.ar      12 UNK        -0.0787 
     12 C12        30.3519   -2.9003   -6.9135 C.ar      12 UNK        -0.0862 
     13 C13        29.2183   -3.7060   -7.0660 C.ar      12 UNK        -0.0733 
     14 C14        28.9728   -4.7148   -6.1235 C.ar      12 UNK        -0.0832 
     15 C15        28.2900   -3.4557   -8.2588 C.3       12 UNK         0.0240 
     16 S16        26.5437   -3.9208   -8.0022 S.3       12 UNK        -0.2522 
     17 C17        26.1349   -2.8980   -6.5532 C.3       12 UNK        -0.0967 
     18 CA         24.7070   -2.2949   -6.5931 C.3       5 UNK         0.0660 
     19 N          24.1858   -2.1999   -5.2279 N.am      5 UNK        -0.4015 
     20 C          22.9030   -2.3073   -4.8647 C.2       4 UNK         0.4946 
     21 O          21.9727   -2.4086   -5.6648 O.2       4 UNK        -0.5353 
     22 CA         22.6047   -2.3156   -3.3574 C.3       4 UNK         0.0277 
     23 CB         22.7290   -3.7427   -2.7976 C.3       4 UNK        -0.1981 
     24 N          23.4980   -1.4254   -2.6076 N.am      4 UNK        -0.4209 
     25 C          23.0866   -0.4386   -1.7978 C.2       3 UNK         0.4942 
     26 O          21.9024   -0.1824   -1.5750 O.2       3 UNK        -0.5208 
     27 CA         24.1687    0.4168   -1.1085 C.3       3 UNK         0.0250 
     28 CB         24.4211   -0.0906    0.3202 C.3       3 UNK        -0.1990 
     29 N          25.4417    0.4686   -1.8328 N.am      3 UNK        -0.4232 
     30 C          25.6064    1.0192   -3.0449 C.2       2 UNK         0.4993 
     31 O          24.7024    1.5796   -3.6633 O.2       2 UNK        -0.5286 
     32 CA         26.9919    0.8922   -3.7075 C.3       2 UNK         0.0209 
     33 CB         27.7877    2.1952   -3.5287 C.3       2 UNK        -0.1931 
     34 N          27.8116   -0.2365   -3.2492 N.am      2 UNK        -0.4546 
     35 C          27.4483   -1.5278   -3.2383 C.2       1 UNK         0.5154 
     36 O          26.3210   -1.9172   -3.5518 O.2       1 UNK        -0.5181 
     37 C          24.6785   -0.9436   -7.3433 C.2       5 UNK         0.5014 
     38 O          24.9657   -0.9189   -8.5405 O.2       5 UNK        -0.5248 
     39 N          24.3579    0.1534   -6.6383 N.am      6 UNK        -0.4434 
     40 CA         24.3648    1.5551   -7.0752 C.3       6 UNK         0.0363 
     41 CB         23.4420    1.8071   -8.2859 C.3       6 UNK        -0.1936 
     42 C          25.7870    2.0935   -7.2991 C.2       6 UNK         0.5081 
     43 O          26.2198    2.9640   -6.5452 O.2       6 UNK        -0.5248 
     44 N          26.4972    1.5582   -8.2975 N.am      7 UNK        -0.4718 
     45 CA         27.8814    1.8917   -8.6278 C.3       7 UNK         0.0273 
     46 CB         27.9856    3.3312   -9.1754 C.3       7 UNK        -0.1935 
     47 C          28.4220    0.9019   -9.6660 C.2       7 UNK         0.5018 
     48 O          27.6645    0.4669  -10.5360 O.2       7 UNK        -0.5186 
     49 N          29.7288    0.6294   -9.5879 N.am      8 UNK        -0.4240 
     50 CA         30.5518   -0.0928  -10.5592 C.3       8 UNK         0.0235 
     51 CB         30.0820   -1.5433  -10.7949 C.3       8 UNK        -0.2000 
     52 C          31.9873   -0.1056  -10.0262 C.2       8 UNK         0.4941 
     53 O          32.1824   -0.3147   -8.8256 O.2       8 UNK        -0.5273 
     54 N          32.9627    0.0769  -10.9269 N.am      9 UNK        -0.4262 
     55 CA         34.4056    0.0778  -10.6580 C.3       9 UNK         0.0264 
     56 CB         34.8953   -1.3598  -10.3616 C.3       9 UNK        -0.1955 
     57 C          34.7836    1.1127   -9.5778 C.2       9 UNK         0.5031 
     58 O          34.6207    2.3109   -9.8151 O.2       9 UNK        -0.5390 
     59 N          35.2702    0.6414   -8.4229 N.am      10 UNK        -0.4204 
     60 CA         35.6325    1.4649   -7.2688 C.3       10 UNK         0.0237 
     61 CB         36.5952    0.6674   -6.3728 C.3       10 UNK        -0.1985 
     62 C          34.4232    1.9517   -6.4484 C.2       10 UNK         0.4970 
     63 O          34.5711    2.9239   -5.7062 O.2       10 UNK        -0.4914 
     64 N          33.2730    1.2752   -6.5615 N.am      11 UNK        -0.4285 
     65 CA         32.0427    1.6128   -5.8349 C.3       11 UNK         0.1007 
     66 C          31.2252    2.6680   -6.6176 C.2       11 UNK         0.5703 
     67 N          30.6921    3.6756   -5.9412 N.am      11 UNK        -0.7361 
     68 O          31.0285    2.5505   -7.8248 O.2       11 UNK        -0.4986 
     69 C69        31.1844    0.3552   -5.5450 C.3       12 UNK        -0.0947 
     70 S70        32.0595   -0.8390   -4.4785 S.3       12 UNK        -0.2240 
     71 C71        32.4306   -2.1814   -5.6508 C.3       12 UNK         0.0194 
     72 H72        30.7141   -1.3335    0.3855 H         1 UNK         0.0906 
     73 H73        29.4754   -0.2447    1.0147 H         1 UNK         0.0906 
     74 H74        29.5482   -1.9176    1.5744 H         1 UNK         0.0906 
     75 H75        30.2503   -2.0515   -1.6647 H         1 UNK         0.3140 
     76 H76        29.2462   -2.5440   -3.5653 H         1 UNK         0.1085 
     77 H77        27.4016   -4.2797   -3.4863 H         1 UNK         0.0836 
     78 H78        27.2580   -4.0239   -1.7687 H         1 UNK         0.0836 
     79 H79        28.6056   -6.4982   -4.2249 H         1 UNK         0.0731 
     80 H80        30.3179   -6.6708   -3.9252 H         1 UNK         0.0731 
     81 H81        31.6360   -4.2426   -4.0732 H         1 UNK         0.1312 
     82 H82        30.5544   -2.1143   -7.6273 H         1 UNK         0.1406 
     83 H83        28.1018   -5.3471   -6.2235 H         1 UNK         0.1631 
     84 H84        28.6724   -4.0044   -9.1202 H         1 UNK         0.0717 
     85 H85        28.3080   -2.3978   -8.5263 H         1 UNK         0.0717 
     86 H86        26.2381   -3.5662   -5.6966 H         1 UNK         0.0934 
     87 H87        26.8887   -2.1217   -6.4046 H         1 UNK         0.0934 
     88 H88        24.0576   -2.9765   -7.1470 H         1 UNK         0.0739 
     89 H89        24.9040   -2.1280   -4.5080 H         1 UNK         0.3093 
     90 H90        21.5663   -1.9975   -3.2429 H         1 UNK         0.0818 
     91 H91        23.7494   -4.1208   -2.8748 H         1 UNK         0.0819 
     92 H92        22.4374   -3.7808   -1.7479 H         1 UNK         0.0819 
     93 H93        22.0811   -4.4339   -3.3386 H         1 UNK         0.0819 
     94 H94        24.4962   -1.5625   -2.7260 H         1 UNK         0.3041 
     95 H95        23.7838    1.4368   -1.0454 H         1 UNK         0.0784 
     96 H96        23.4987   -0.0943    0.9027 H         1 UNK         0.0793 
     97 H97        24.8122   -1.1090    0.3223 H         1 UNK         0.0793 
     98 H98        25.1344    0.5430    0.8478 H         1 UNK         0.0793 
     99 H99        26.2271   -0.0060   -1.4049 H         1 UNK         0.3024 
    100 H100       26.8154    0.7451   -4.7745 H         1 UNK         0.1171 
    101 H101       28.7046    2.1881   -4.1166 H         1 UNK         0.0786 
    102 H102       27.2059    3.0559   -3.8631 H         1 UNK         0.0786 
    103 H103       28.0541    2.3669   -2.4852 H         1 UNK         0.0786 
    104 H104       28.7427   -0.0131   -2.9279 H         1 UNK         0.2977 
    105 H105       24.1497    0.0262   -5.6574 H         1 UNK         0.3127 
    106 H106       23.9475    2.1205   -6.2402 H         1 UNK         0.0770 
    107 H107       23.7890    1.3052   -9.1890 H         1 UNK         0.0814 
    108 H108       23.3889    2.8725   -8.5130 H         1 UNK         0.0814 
    109 H109       22.4260    1.4679   -8.0846 H         1 UNK         0.0814 
    110 H110       26.0880    0.7988   -8.8375 H         1 UNK         0.2983 
    111 H111       28.4732    1.8033   -7.7149 H         1 UNK         0.0947 
    112 H112       29.0057    3.5579   -9.4887 H         1 UNK         0.0806 
    113 H113       27.7156    4.0726   -8.4241 H         1 UNK         0.0806 
    114 H114       27.3383    3.4780  -10.0407 H         1 UNK         0.0806 
    115 H115       30.2732    1.0874   -8.8587 H         1 UNK         0.3000 
    116 H116       30.5141    0.4588  -11.5005 H         1 UNK         0.0850 
    117 H117       30.6758   -2.0128  -11.5800 H         1 UNK         0.0810 
    118 H118       29.0414   -1.6047  -11.1099 H         1 UNK         0.0810 
    119 H119       30.2042   -2.1542   -9.9030 H         1 UNK         0.0810 
    120 H120       32.7011    0.2642  -11.8849 H         1 UNK         0.3040 
    121 H121       34.8941    0.4079  -11.5761 H         1 UNK         0.0766 
    122 H122       34.6786   -2.0222  -11.1997 H         1 UNK         0.0812 
    123 H123       34.4193   -1.7894   -9.4792 H         1 UNK         0.0812 
    124 H124       35.9753   -1.3880  -10.2097 H         1 UNK         0.0812 
    125 H125       35.3512   -0.3591   -8.3141 H         1 UNK         0.3205 
    126 H126       36.1594    2.3512   -7.6291 H         1 UNK         0.0754 
    127 H127       36.9190    1.2643   -5.5188 H         1 UNK         0.0769 
    128 H128       37.4926    0.3721   -6.9170 H         1 UNK         0.0769 
    129 H129       36.1266   -0.2357   -5.9792 H         1 UNK         0.0769 
    130 H130       33.1743    0.5605   -7.2745 H         1 UNK         0.2981 
    131 H131       32.3159    2.0452   -4.8700 H         1 UNK         0.0541 
    132 H132       30.8472    3.7822   -4.9513 H         1 UNK         0.3459 
    133 H133       30.1436    4.3590   -6.4380 H         1 UNK         0.3459 
    134 H134       30.8748   -0.1230   -6.4739 H         1 UNK         0.0612 
    135 H135       30.2637    0.6318   -5.0304 H         1 UNK         0.0612 
    136 H136       33.2689   -2.7624   -5.2639 H         1 UNK         0.0624 
    137 H137       32.7619   -1.7667   -6.6037 H         1 UNK         0.0624 
@<TRIPOS>BOND
     1    1    2 1    
     2    1   72 1    
     3    1   73 1    
     4    1   74 1    
     5    2    3 2    
     6    2    4 am   BACKBONE|DICT|INTERRES
     7    4    5 1    
     8    4   75 1    
     9    5    6 1    
    10    5   35 1    
    11    5   76 1    
    12    6    7 1    
    13    6   77 1    
    14    6   78 1    
    15    7    8 1    
    16    8    9 1    
    17    8   79 1    
    18    8   80 1    
    19    9   10 ar   
    20    9   14 ar   
    21   10   11 ar   
    22   10   81 1    
    23   11   12 ar   
    24   11   71 1    
    25   12   13 ar   
    26   12   82 1    
    27   13   14 ar   
    28   13   15 1    
    29   14   83 1    
    30   15   16 1    
    31   15   84 1    
    32   15   85 1    
    33   16   17 1    
    34   17   18 1    
    35   17   86 1    
    36   17   87 1    
    37   18   19 1    
    38   18   37 1    
    39   18   88 1    
    40   19   20 am   BACKBONE|DICT|INTERRES
    41   19   89 1    
    42   20   21 2    
    43   20   22 1    
    44   22   23 1    
    45   22   24 1    
    46   22   90 1    
    47   23   91 1    
    48   23   92 1    
    49   23   93 1    
    50   24   25 am   BACKBONE|DICT|INTERRES
    51   24   94 1    
    52   25   26 2    
    53   25   27 1    
    54   27   28 1    
    55   27   29 1    
    56   27   95 1    
    57   28   96 1    
    58   28   97 1    
    59   28   98 1    
    60   29   30 am   BACKBONE|DICT|INTERRES
    61   29   99 1    
    62   30   31 2    
    63   30   32 1    
    64   32   33 1    
    65   32   34 1    
    66   32  100 1    
    67   33  101 1    
    68   33  102 1    
    69   33  103 1    
    70   34   35 am   BACKBONE|DICT|INTERRES
    71   34  104 1    
    72   35   36 2    
    73   37   38 2    
    74   37   39 am   BACKBONE|DICT|INTERRES
    75   39   40 1    
    76   39  105 1    
    77   40   41 1    
    78   40   42 1    
    79   40  106 1    
    80   41  107 1    
    81   41  108 1    
    82   41  109 1    
    83   42   43 2    
    84   42   44 am   BACKBONE|DICT|INTERRES
    85   44   45 1    
    86   44  110 1    
    87   45   46 1    
    88   45   47 1    
    89   45  111 1    
    90   46  112 1    
    91   46  113 1    
    92   46  114 1    
    93   47   48 2    
    94   47   49 am   BACKBONE|DICT|INTERRES
    95   49   50 1    
    96   49  115 1    
    97   50   51 1    
    98   50   52 1    
    99   50  116 1    
   100   51  117 1    
   101   51  118 1    
   102   51  119 1    
   103   52   53 2    
   104   52   54 am   BACKBONE|DICT|INTERRES
   105   54   55 1    
   106   54  120 1    
   107   55   56 1    
   108   55   57 1    
   109   55  121 1    
   110   56  122 1    
   111   56  123 1    
   112   56  124 1    
   113   57   58 2    
   114   57   59 am   BACKBONE|DICT|INTERRES
   115   59   60 1    
   116   59  125 1    
   117   60   61 1    
   118   60   62 1    
   119   60  126 1    
   120   61  127 1    
   121   61  128 1    
   122   61  129 1    
   123   62   63 2    
   124   62   64 am   BACKBONE|DICT|INTERRES
   125   64   65 1    
   126   64  130 1    
   127   65   66 1    
   128   65   69 1    
   129   65  131 1    
   130   66   67 am   BACKBONE|DICT|INTERRES
   131   66   68 2    
   132   67  132 1    
   133   67  133 1    
   134   69   70 1    
   135   69  134 1    
   136   69  135 1    
   137   70   71 1    
   138   71  136 1    
   139   71  137 1    
@<TRIPOS>SUBSTRUCTURE
     1 UNK         1 GROUP             0       ****    0 ROOT    
