@<TRIPOS>MOLECULE
3R137
137   139    1
SMALL
USER_CHARGES


@<TRIPOS>ATOM
      1 CA         22.4090   -4.7434   -3.5736 C.3       0 UNK        -0.2020 
      2 C          23.4401   -4.4882   -2.4855 C.2       0 UNK         0.4855 
      3 O          23.1255   -3.8393   -1.4868 O.2       0 UNK        -0.5197 
      4 N          24.6710   -4.9854   -2.6708 N.am      1 UNK        -0.4892 
      5 CA         25.8084   -4.8088   -1.7605 C.3       1 UNK         0.0835 
      6 C6         27.0493   -5.6418   -2.1833 C.3       12 UNK        -0.0855 
      7 S7         27.4826   -5.5586   -3.9616 S.3       12 UNK        -0.2931 
      8 C8         29.3041   -5.6105   -3.9159 C.3       12 UNK         0.0378 
      9 C9         29.9265   -4.2408   -4.1536 C.ar      12 UNK        -0.0802 
     10 C10        30.5796   -3.9656   -5.3598 C.ar      12 UNK        -0.0944 
     11 C11        31.1812   -2.7219   -5.5783 C.ar      12 UNK        -0.0787 
     12 C12        31.1168   -1.7439   -4.5817 C.ar      12 UNK        -0.0862 
     13 C13        30.4701   -2.0072   -3.3714 C.ar      12 UNK        -0.0733 
     14 C14        29.8778   -3.2566   -3.1622 C.ar      12 UNK        -0.0832 
     15 C15        30.4220   -0.9507   -2.2797 C.3       12 UNK         0.0240 
     16 S16        28.7980   -0.1399   -2.2079 S.3       12 UNK        -0.2522 
     17 C17        28.8791    1.0518   -3.5832 C.3       12 UNK        -0.0967 
     18 CA         28.2675    0.5389   -4.9130 C.3       5 UNK         0.0660 
     19 N          26.9395   -0.0730   -4.7484 N.am      5 UNK        -0.4015 
     20 C          26.1775   -0.5587   -5.7414 C.2       4 UNK         0.4946 
     21 O          26.4579   -0.4414   -6.9341 O.2       4 UNK        -0.5353 
     22 CA         24.8857   -1.3038   -5.3790 C.3       4 UNK         0.0277 
     23 CB         25.0538   -2.8070   -5.6528 C.3       4 UNK        -0.1981 
     24 N          24.4663   -1.1056   -3.9897 N.am      4 UNK        -0.4209 
     25 C          23.6033   -0.1587   -3.5913 C.2       3 UNK         0.4942 
     26 O          23.1297    0.6871   -4.3509 O.2       3 UNK        -0.5208 
     27 CA         23.1639   -0.1494   -2.1149 C.3       3 UNK         0.0250 
     28 CB         21.7313   -0.6920   -1.9803 C.3       3 UNK        -0.1990 
     29 N          24.0528   -0.9230   -1.2459 N.am      3 UNK        -0.4232 
     30 C          25.1879   -0.4411   -0.7185 C.2       2 UNK         0.4993 
     31 O          25.5524    0.7278   -0.8465 O.2       2 UNK        -0.5286 
     32 CA         26.0799   -1.4205    0.0715 C.3       2 UNK         0.0209 
     33 CB         25.8126   -1.2879    1.5796 C.3       2 UNK        -0.1931 
     34 N          25.9400   -2.8284   -0.3192 N.am      2 UNK        -0.4546 
     35 C          26.1301   -3.3150   -1.5543 C.2       1 UNK         0.5154 
     36 O          26.4608   -2.6216   -2.5162 O.2       1 UNK        -0.5181 
     37 C          28.3047    1.6697   -5.9604 C.2       5 UNK         0.5014 
     38 O          29.1931    1.6802   -6.8130 O.2       5 UNK        -0.5248 
     39 N          27.3249    2.5818   -5.8886 N.am      6 UNK        -0.4434 
     40 CA         27.1870    3.7257   -6.7934 C.3       6 UNK         0.0363 
     41 CB         26.2089    4.7398   -6.1787 C.3       6 UNK        -0.1936 
     42 C          26.7362    3.3401   -8.2133 C.2       6 UNK         0.5081 
     43 O          27.0371    4.0743   -9.1544 O.2       6 UNK        -0.5248 
     44 N          26.0236    2.2133   -8.3488 N.am      7 UNK        -0.4718 
     45 CA         25.5967    1.6639   -9.6364 C.3       7 UNK         0.0273 
     46 CB         24.3573    0.7752   -9.4382 C.3       7 UNK        -0.1935 
     47 C          26.7339    0.8814  -10.3091 C.2       7 UNK         0.5018 
     48 O          26.9168    1.0035  -11.5207 O.2       7 UNK        -0.5186 
     49 N          27.4785    0.1041   -9.5096 N.am      8 UNK        -0.4240 
     50 CA         28.6517   -0.6565   -9.9370 C.3       8 UNK         0.0235 
     51 CB         29.0439   -1.6535   -8.8376 C.3       8 UNK        -0.2000 
     52 C          29.8324    0.2531  -10.3125 C.2       8 UNK         0.4941 
     53 O          30.4520    0.0300  -11.3526 O.2       8 UNK        -0.5273 
     54 N          30.1097    1.2629   -9.4723 N.am      9 UNK        -0.4262 
     55 CA         31.0298    2.3998   -9.6423 C.3       9 UNK         0.0264 
     56 CB         30.5493    3.3056  -10.7922 C.3       9 UNK        -0.1955 
     57 C          32.5313    2.0808   -9.8001 C.2       9 UNK         0.5031 
     58 O          33.3542    2.9045   -9.3992 O.2       9 UNK        -0.5390 
     59 N          32.8741    0.9302  -10.3898 N.am      10 UNK        -0.4204 
     60 CA         34.2381    0.5135  -10.7294 C.3       10 UNK         0.0237 
     61 CB         34.1663   -0.7143  -11.6522 C.3       10 UNK        -0.1985 
     62 C          35.1445    0.2177   -9.5208 C.2       10 UNK         0.4970 
     63 O          36.3647    0.3246   -9.6532 O.2       10 UNK        -0.4914 
     64 N          34.5499   -0.1726   -8.3872 N.am      11 UNK        -0.4285 
     65 CA         35.2573   -0.4958   -7.1394 C.3       11 UNK         0.1007 
     66 C          35.9107    0.7536   -6.4890 C.2       11 UNK         0.5703 
     67 N          37.1240    0.6230   -5.9697 N.am      11 UNK        -0.7361 
     68 O          35.3091    1.8228   -6.4096 O.2       11 UNK        -0.4986 
     69 C69        34.3306   -1.2150   -6.1274 C.3       12 UNK        -0.0947 
     70 S70        33.6773   -2.7886   -6.7814 S.3       12 UNK        -0.2240 
     71 C71        31.8953   -2.4426   -6.8930 C.3       12 UNK         0.0194 
     72 H72        21.5478   -5.2655   -3.1577 H         1 UNK         0.0906 
     73 H73        22.0644   -3.7982   -3.9921 H         1 UNK         0.0906 
     74 H74        22.8129   -5.3488   -4.3849 H         1 UNK         0.0906 
     75 H75        24.8922   -5.4759   -3.5263 H         1 UNK         0.3140 
     76 H76        25.4850   -5.2046   -0.7951 H         1 UNK         0.1085 
     77 H77        26.8616   -6.6923   -1.9555 H         1 UNK         0.0836 
     78 H78        27.9117   -5.3684   -1.5729 H         1 UNK         0.0836 
     79 H79        29.6411   -6.3129   -4.6798 H         1 UNK         0.0731 
     80 H80        29.6559   -6.0176   -2.9671 H         1 UNK         0.0731 
     81 H81        30.6282   -4.7241   -6.1291 H         1 UNK         0.1312 
     82 H82        31.5672   -0.7757   -4.7443 H         1 UNK         0.1406 
     83 H83        29.3695   -3.4574   -2.2295 H         1 UNK         0.1631 
     84 H84        31.2072   -0.2055   -2.4157 H         1 UNK         0.0717 
     85 H85        30.6175   -1.4226   -1.3157 H         1 UNK         0.0717 
     86 H86        28.3570    1.9494   -3.2453 H         1 UNK         0.0934 
     87 H87        29.9178    1.3527   -3.7331 H         1 UNK         0.0934 
     88 H88        28.9085   -0.2569   -5.2940 H         1 UNK         0.0739 
     89 H89        26.6627   -0.2650   -3.7956 H         1 UNK         0.3093 
     90 H90        24.1077   -0.9340   -6.0505 H         1 UNK         0.0818 
     91 H91        25.8208   -3.2502   -5.0177 H         1 UNK         0.0819 
     92 H92        24.1227   -3.3469   -5.4891 H         1 UNK         0.0819 
     93 H93        25.3498   -2.9855   -6.6875 H         1 UNK         0.0819 
     94 H94        24.8942   -1.7198   -3.3030 H         1 UNK         0.3041 
     95 H95        23.1580    0.8914   -1.7836 H         1 UNK         0.0784 
     96 H96        21.0316   -0.0956   -2.5675 H         1 UNK         0.0793 
     97 H97        21.6524   -1.7216   -2.3299 H         1 UNK         0.0793 
     98 H98        21.3909   -0.6623   -0.9450 H         1 UNK         0.0793 
     99 H99        23.8175   -1.9012   -1.1066 H         1 UNK         0.3024 
    100 H100       27.1156   -1.1333   -0.1148 H         1 UNK         0.1171 
    101 H101       26.5058   -1.8953    2.1617 H         1 UNK         0.0786 
    102 H102       25.9369   -0.2550    1.9084 H         1 UNK         0.0786 
    103 H103       24.7975   -1.5921    1.8379 H         1 UNK         0.0786 
    104 H104       25.6245   -3.4591    0.4041 H         1 UNK         0.2977 
    105 H105       26.6254    2.4832   -5.1667 H         1 UNK         0.3127 
    106 H106       28.1641    4.2059   -6.8827 H         1 UNK         0.0770 
    107 H107       25.2130    4.3140   -6.0491 H         1 UNK         0.0814 
    108 H108       26.1064    5.6184   -6.8173 H         1 UNK         0.0814 
    109 H109       26.5563    5.0883   -5.2059 H         1 UNK         0.0814 
    110 H110       25.8769    1.6294   -7.5359 H         1 UNK         0.2983 
    111 H111       25.3184    2.4864  -10.2995 H         1 UNK         0.0947 
    112 H112       24.0037    0.3850  -10.3935 H         1 UNK         0.0806 
    113 H113       23.5351    1.3358   -8.9934 H         1 UNK         0.0806 
    114 H114       24.5652   -0.0808   -8.7956 H         1 UNK         0.0806 
    115 H115       27.2047    0.0153   -8.5320 H         1 UNK         0.3000 
    116 H116       28.3745   -1.2252  -10.8273 H         1 UNK         0.0850 
    117 H117       29.8880   -2.2635   -9.1586 H         1 UNK         0.0810 
    118 H118       28.2226   -2.3327   -8.6077 H         1 UNK         0.0810 
    119 H119       29.3229   -1.1489   -7.9117 H         1 UNK         0.0810 
    120 H120       29.5874    1.2988   -8.5980 H         1 UNK         0.3040 
    121 H121       30.9415    2.9737   -8.7183 H         1 UNK         0.0766 
    122 H122       29.5212    3.6325  -10.6338 H         1 UNK         0.0812 
    123 H123       30.5939    2.7963  -11.7554 H         1 UNK         0.0812 
    124 H124       31.1661    4.2020  -10.8690 H         1 UNK         0.0812 
    125 H125       32.1080    0.3679  -10.7587 H         1 UNK         0.3205 
    126 H126       34.7018    1.3307  -11.2859 H         1 UNK         0.0754 
    127 H127       35.1636   -1.0361  -11.9558 H         1 UNK         0.0769 
    128 H128       33.6075   -0.4945  -12.5623 H         1 UNK         0.0769 
    129 H129       33.6853   -1.5605  -11.1597 H         1 UNK         0.0769 
    130 H130       33.5438   -0.2134   -8.3586 H         1 UNK         0.2981 
    131 H131       36.0588   -1.1899   -7.4012 H         1 UNK         0.0541 
    132 H132       37.6208   -0.2530   -6.0179 H         1 UNK         0.3459 
    133 H133       37.5559    1.4197   -5.5283 H         1 UNK         0.3459 
    134 H134       33.5128   -0.5564   -5.8361 H         1 UNK         0.0612 
    135 H135       34.8749   -1.4472   -5.2101 H         1 UNK         0.0612 
    136 H136       31.7278   -1.4130   -7.2125 H         1 UNK         0.0624 
    137 H137       31.4817   -3.0781   -7.6762 H         1 UNK         0.0624 
@<TRIPOS>BOND
     1    1    2 1    
     2    1   72 1    
     3    1   73 1    
     4    1   74 1    
     5    2    3 2    
     6    2    4 am   BACKBONE|DICT|INTERRES
     7    4    5 1    
     8    4   75 1    
     9    5    6 1    
    10    5   35 1    
    11    5   76 1    
    12    6    7 1    
    13    6   77 1    
    14    6   78 1    
    15    7    8 1    
    16    8    9 1    
    17    8   79 1    
    18    8   80 1    
    19    9   10 ar   
    20    9   14 ar   
    21   10   11 ar   
    22   10   81 1    
    23   11   12 ar   
    24   11   71 1    
    25   12   13 ar   
    26   12   82 1    
    27   13   14 ar   
    28   13   15 1    
    29   14   83 1    
    30   15   16 1    
    31   15   84 1    
    32   15   85 1    
    33   16   17 1    
    34   17   18 1    
    35   17   86 1    
    36   17   87 1    
    37   18   19 1    
    38   18   37 1    
    39   18   88 1    
    40   19   20 am   BACKBONE|DICT|INTERRES
    41   19   89 1    
    42   20   21 2    
    43   20   22 1    
    44   22   23 1    
    45   22   24 1    
    46   22   90 1    
    47   23   91 1    
    48   23   92 1    
    49   23   93 1    
    50   24   25 am   BACKBONE|DICT|INTERRES
    51   24   94 1    
    52   25   26 2    
    53   25   27 1    
    54   27   28 1    
    55   27   29 1    
    56   27   95 1    
    57   28   96 1    
    58   28   97 1    
    59   28   98 1    
    60   29   30 am   BACKBONE|DICT|INTERRES
    61   29   99 1    
    62   30   31 2    
    63   30   32 1    
    64   32   33 1    
    65   32   34 1    
    66   32  100 1    
    67   33  101 1    
    68   33  102 1    
    69   33  103 1    
    70   34   35 am   BACKBONE|DICT|INTERRES
    71   34  104 1    
    72   35   36 2    
    73   37   38 2    
    74   37   39 am   BACKBONE|DICT|INTERRES
    75   39   40 1    
    76   39  105 1    
    77   40   41 1    
    78   40   42 1    
    79   40  106 1    
    80   41  107 1    
    81   41  108 1    
    82   41  109 1    
    83   42   43 2    
    84   42   44 am   BACKBONE|DICT|INTERRES
    85   44   45 1    
    86   44  110 1    
    87   45   46 1    
    88   45   47 1    
    89   45  111 1    
    90   46  112 1    
    91   46  113 1    
    92   46  114 1    
    93   47   48 2    
    94   47   49 am   BACKBONE|DICT|INTERRES
    95   49   50 1    
    96   49  115 1    
    97   50   51 1    
    98   50   52 1    
    99   50  116 1    
   100   51  117 1    
   101   51  118 1    
   102   51  119 1    
   103   52   53 2    
   104   52   54 am   BACKBONE|DICT|INTERRES
   105   54   55 1    
   106   54  120 1    
   107   55   56 1    
   108   55   57 1    
   109   55  121 1    
   110   56  122 1    
   111   56  123 1    
   112   56  124 1    
   113   57   58 2    
   114   57   59 am   BACKBONE|DICT|INTERRES
   115   59   60 1    
   116   59  125 1    
   117   60   61 1    
   118   60   62 1    
   119   60  126 1    
   120   61  127 1    
   121   61  128 1    
   122   61  129 1    
   123   62   63 2    
   124   62   64 am   BACKBONE|DICT|INTERRES
   125   64   65 1    
   126   64  130 1    
   127   65   66 1    
   128   65   69 1    
   129   65  131 1    
   130   66   67 am   BACKBONE|DICT|INTERRES
   131   66   68 2    
   132   67  132 1    
   133   67  133 1    
   134   69   70 1    
   135   69  134 1    
   136   69  135 1    
   137   70   71 1    
   138   71  136 1    
   139   71  137 1    
@<TRIPOS>SUBSTRUCTURE
     1 UNK         1 GROUP             0       ****    0 ROOT    
