@<TRIPOS>MOLECULE
3R137
137   139    1
SMALL
USER_CHARGES


@<TRIPOS>ATOM
      1 CA         23.5568   -6.1178   -0.2804 C.3       0 UNK        -0.2020 
      2 C          24.9710   -5.7201    0.1161 C.2       0 UNK         0.4855 
      3 O          25.5638   -6.3566    0.9876 O.2       0 UNK        -0.5197 
      4 N          25.5134   -4.6741   -0.5149 N.am      1 UNK        -0.4892 
      5 CA         26.8375   -4.1175   -0.2427 C.3       1 UNK         0.0835 
      6 C6         27.9796   -4.9579   -0.8803 C.3       12 UNK        -0.0855 
      7 S7         29.5894   -4.6254   -0.0882 S.3       12 UNK        -0.2931 
      8 C8         30.7593   -5.1054   -1.3972 C.3       12 UNK         0.0378 
      9 C9         30.7503   -4.1206   -2.5569 C.ar      12 UNK        -0.0802 
     10 C10        31.3094   -2.8488   -2.4008 C.ar      12 UNK        -0.0944 
     11 C11        31.3129   -1.9336   -3.4582 C.ar      12 UNK        -0.0787 
     12 C12        30.7364   -2.3052   -4.6792 C.ar      12 UNK        -0.0862 
     13 C13        30.1980   -3.5848   -4.8575 C.ar      12 UNK        -0.0733 
     14 C14        30.2069   -4.4873   -3.7909 C.ar      12 UNK        -0.0832 
     15 C15        29.6633   -4.0106   -6.2203 C.3       12 UNK         0.0240 
     16 S16        27.9241   -4.5672   -6.2000 S.3       12 UNK        -0.2522 
     17 C17        27.0258   -3.1262   -5.5376 C.3       12 UNK        -0.0967 
     18 CA         26.5996   -2.1027   -6.6243 C.3       5 UNK         0.0660 
     19 N          25.3650   -1.4001   -6.2654 N.am      5 UNK        -0.4015 
     20 C          24.6787   -0.5944   -7.0917 C.2       4 UNK         0.4946 
     21 O          24.9662   -0.4242   -8.2767 O.2       4 UNK        -0.5353 
     22 CA         23.5069    0.2005   -6.4868 C.3       4 UNK         0.0277 
     23 CB         22.1972   -0.5939   -6.6085 C.3       4 UNK        -0.1981 
     24 N          23.7218    0.5822   -5.0875 N.am      4 UNK        -0.4209 
     25 C          24.7175    1.3681   -4.6537 C.2       3 UNK         0.4942 
     26 O          25.5367    1.8996   -5.4041 O.2       3 UNK        -0.5208 
     27 CA         24.8687    1.5549   -3.1308 C.3       3 UNK         0.0250 
     28 CB         23.6396    1.0919   -2.3151 C.3       3 UNK        -0.1990 
     29 N          26.0886    0.9150   -2.6154 N.am      3 UNK        -0.4232 
     30 C          26.4439   -0.3727   -2.7517 C.2       2 UNK         0.4993 
     31 O          25.7888   -1.1919   -3.4000 O.2       2 UNK        -0.5286 
     32 CA         27.7684   -0.8295   -2.0984 C.3       2 UNK         0.0209 
     33 CB         28.3309    0.1526   -1.0468 C.3       2 UNK        -0.1931 
     34 N          27.6786   -2.1839   -1.5356 N.am      2 UNK        -0.4546 
     35 C          26.7926   -2.6258   -0.6288 C.2       1 UNK         0.5154 
     36 O          25.9388   -1.9099   -0.0995 O.2       1 UNK        -0.5181 
     37 C          27.7294   -1.0965   -6.9014 C.2       5 UNK         0.5014 
     38 O          28.4346   -1.2307   -7.9006 O.2       5 UNK        -0.5248 
     39 N          27.8604   -0.0885   -6.0254 N.am      6 UNK        -0.4434 
     40 CA         28.8714    0.9611   -6.1298 C.3       6 UNK         0.0363 
     41 CB         28.9083    1.8145   -4.8517 C.3       6 UNK        -0.1936 
     42 C          28.6851    1.8362   -7.3720 C.2       6 UNK         0.5081 
     43 O          29.6675    2.1113   -8.0612 O.2       6 UNK        -0.5248 
     44 N          27.4288    2.2065   -7.6523 N.am      7 UNK        -0.4718 
     45 CA         27.0216    2.9386   -8.8515 C.3       7 UNK         0.0273 
     46 CB         25.5342    3.3095   -8.7413 C.3       7 UNK        -0.1935 
     47 C          27.2956    2.1620  -10.1510 C.2       7 UNK         0.5018 
     48 O          27.7606    2.7619  -11.1205 O.2       7 UNK        -0.5186 
     49 N          27.0209    0.8493  -10.1444 N.am      8 UNK        -0.4240 
     50 CA         27.2713   -0.0501  -11.2720 C.3       8 UNK         0.0235 
     51 CB         26.5269   -1.3774  -11.0521 C.3       8 UNK        -0.2000 
     52 C          28.7684   -0.3009  -11.5168 C.2       8 UNK         0.4941 
     53 O          29.2141   -0.2188  -12.6621 O.2       8 UNK        -0.5273 
     54 N          29.5130   -0.6158  -10.4482 N.am      9 UNK        -0.4262 
     55 CA         30.9318   -0.9772  -10.5119 C.3       9 UNK         0.0264 
     56 CB         31.2923   -1.8029   -9.2652 C.3       9 UNK        -0.1955 
     57 C          31.8870    0.2215  -10.6424 C.2       9 UNK         0.5031 
     58 O          33.0423    0.0092  -11.0136 O.2       9 UNK        -0.5390 
     59 N          31.4185    1.4320  -10.2982 N.am      10 UNK        -0.4204 
     60 CA         32.2054    2.6583  -10.0944 C.3       10 UNK         0.0237 
     61 CB         32.8693    3.1397  -11.4026 C.3       10 UNK        -0.1985 
     62 C          33.1943    2.4884   -8.9224 C.2       10 UNK         0.4970 
     63 O          34.3781    2.8088   -9.0436 O.2       10 UNK        -0.4914 
     64 N          32.6725    1.9377   -7.8208 N.am      11 UNK        -0.4285 
     65 CA         33.3932    1.6067   -6.5855 C.3       11 UNK         0.1007 
     66 C          33.8601    2.8767   -5.8227 C.2       11 UNK         0.5703 
     67 N          35.0686    2.8690   -5.2771 N.am      11 UNK        -0.7361 
     68 O          33.1232    3.8533   -5.6966 O.2       11 UNK        -0.4986 
     69 C69        32.4955    0.6934   -5.7162 C.3       12 UNK        -0.0947 
     70 S70        33.3331   -0.2030   -4.3696 S.3       12 UNK        -0.2240 
     71 C71        31.9251   -0.5486   -3.2550 C.3       12 UNK         0.0194 
     72 H72        23.1570   -5.4769   -1.0662 H         1 UNK         0.0906 
     73 H73        23.5440   -7.1455   -0.6426 H         1 UNK         0.0906 
     74 H74        22.8930   -6.0519    0.5813 H         1 UNK         0.0906 
     75 H75        24.9647   -4.1486   -1.1835 H         1 UNK         0.3140 
     76 H76        26.9758   -4.1289    0.8413 H         1 UNK         0.1085 
     77 H77        27.7817   -6.0215   -0.7384 H         1 UNK         0.0836 
     78 H78        28.0262   -4.8164   -1.9608 H         1 UNK         0.0836 
     79 H79        31.7637   -5.1486   -0.9733 H         1 UNK         0.0731 
     80 H80        30.5282   -6.1165   -1.7367 H         1 UNK         0.0731 
     81 H81        31.7398   -2.5740   -1.4471 H         1 UNK         0.1312 
     82 H82        30.7280   -1.6100   -5.5035 H         1 UNK         0.1406 
     83 H83        29.7949   -5.4782   -3.9283 H         1 UNK         0.1631 
     84 H84        30.2790   -4.8321   -6.5890 H         1 UNK         0.0717 
     85 H85        29.7772   -3.2106   -6.9496 H         1 UNK         0.0717 
     86 H86        27.5990   -2.6653   -4.7318 H         1 UNK         0.0934 
     87 H87        26.1375   -3.5329   -5.0513 H         1 UNK         0.0934 
     88 H88        26.3966   -2.6395   -7.5537 H         1 UNK         0.0739 
     89 H89        25.1080   -1.4310   -5.2833 H         1 UNK         0.3093 
     90 H90        23.4040    1.1202   -7.0664 H         1 UNK         0.0818 
     91 H91        21.3435   -0.0071   -6.2687 H         1 UNK         0.0819 
     92 H92        22.0048   -0.8702   -7.6464 H         1 UNK         0.0819 
     93 H93        22.2262   -1.5156   -6.0260 H         1 UNK         0.0819 
     94 H94        23.1075    0.1692   -4.4006 H         1 UNK         0.3041 
     95 H95        24.9860    2.6278   -2.9705 H         1 UNK         0.0784 
     96 H96        22.7273    1.5828   -2.6571 H         1 UNK         0.0793 
     97 H97        23.4842    0.0137   -2.3724 H         1 UNK         0.0793 
     98 H98        23.7578    1.3446   -1.2612 H         1 UNK         0.0793 
     99 H99        26.7025    1.5194   -2.0878 H         1 UNK         0.3024 
    100 H100       28.4931   -0.8951   -2.9109 H         1 UNK         0.1171 
    101 H101       29.2550   -0.2307   -0.6130 H         1 UNK         0.0786 
    102 H102       27.6288    0.3191   -0.2287 H         1 UNK         0.0786 
    103 H103       28.5708    1.1216   -1.4853 H         1 UNK         0.0786 
    104 H104       28.3476   -2.8505   -1.8965 H         1 UNK         0.2977 
    105 H105       27.1690    0.0096   -5.2967 H         1 UNK         0.3127 
    106 H106       29.8262    0.4544   -6.2403 H         1 UNK         0.0770 
    107 H107       27.9668    2.3336   -4.6766 H         1 UNK         0.0814 
    108 H108       29.6830    2.5797   -4.9179 H         1 UNK         0.0814 
    109 H109       29.1265    1.2112   -3.9735 H         1 UNK         0.0814 
    110 H110       26.6990    1.9704   -6.9848 H         1 UNK         0.2983 
    111 H111       27.6050    3.8612   -8.8890 H         1 UNK         0.0947 
    112 H112       25.2120    3.8920   -9.6055 H         1 UNK         0.0806 
    113 H113       25.3401    3.9110   -7.8529 H         1 UNK         0.0806 
    114 H114       24.9004    2.4235   -8.6895 H         1 UNK         0.0806 
    115 H115       26.5933    0.4412   -9.3196 H         1 UNK         0.3000 
    116 H116       26.8639    0.4177  -12.1710 H         1 UNK         0.0850 
    117 H117       26.6944   -2.0630  -11.8838 H         1 UNK         0.0810 
    118 H118       25.4512   -1.2185  -10.9745 H         1 UNK         0.0810 
    119 H119       26.8546   -1.8804  -10.1415 H         1 UNK         0.0810 
    120 H120       29.0607   -0.7083   -9.5388 H         1 UNK         0.3040 
    121 H121       31.0871   -1.6098  -11.3886 H         1 UNK         0.0766 
    122 H122       32.3363   -2.1182   -9.2891 H         1 UNK         0.0812 
    123 H123       31.1444   -1.2319   -8.3482 H         1 UNK         0.0812 
    124 H124       30.6836   -2.7048   -9.2010 H         1 UNK         0.0812 
    125 H125       30.4664    1.4794   -9.9522 H         1 UNK         0.3205 
    126 H126       31.4956    3.4277   -9.7866 H         1 UNK         0.0754 
    127 H127       33.3349    4.1161  -11.2637 H         1 UNK         0.0769 
    128 H128       32.1370    3.2403  -12.2037 H         1 UNK         0.0769 
    129 H129       33.6483    2.4574  -11.7435 H         1 UNK         0.0769 
    130 H130       31.6687    1.7974   -7.8061 H         1 UNK         0.2981 
    131 H131       34.2762    1.0359   -6.8797 H         1 UNK         0.0541 
    132 H132       35.6686    2.0628   -5.3557 H         1 UNK         0.3459 
    133 H133       35.3826    3.6804   -4.7683 H         1 UNK         0.3459 
    134 H134       32.0465   -0.0670   -6.3538 H         1 UNK         0.0612 
    135 H135       31.6829    1.2834   -5.2951 H         1 UNK         0.0612 
    136 H136       32.2890   -0.4481   -2.2314 H         1 UNK         0.0624 
    137 H137       31.1517    0.2100   -3.3640 H         1 UNK         0.0624 
@<TRIPOS>BOND
     1    1    2 1    
     2    1   72 1    
     3    1   73 1    
     4    1   74 1    
     5    2    3 2    
     6    2    4 am   BACKBONE|DICT|INTERRES
     7    4    5 1    
     8    4   75 1    
     9    5    6 1    
    10    5   35 1    
    11    5   76 1    
    12    6    7 1    
    13    6   77 1    
    14    6   78 1    
    15    7    8 1    
    16    8    9 1    
    17    8   79 1    
    18    8   80 1    
    19    9   10 ar   
    20    9   14 ar   
    21   10   11 ar   
    22   10   81 1    
    23   11   12 ar   
    24   11   71 1    
    25   12   13 ar   
    26   12   82 1    
    27   13   14 ar   
    28   13   15 1    
    29   14   83 1    
    30   15   16 1    
    31   15   84 1    
    32   15   85 1    
    33   16   17 1    
    34   17   18 1    
    35   17   86 1    
    36   17   87 1    
    37   18   19 1    
    38   18   37 1    
    39   18   88 1    
    40   19   20 am   BACKBONE|DICT|INTERRES
    41   19   89 1    
    42   20   21 2    
    43   20   22 1    
    44   22   23 1    
    45   22   24 1    
    46   22   90 1    
    47   23   91 1    
    48   23   92 1    
    49   23   93 1    
    50   24   25 am   BACKBONE|DICT|INTERRES
    51   24   94 1    
    52   25   26 2    
    53   25   27 1    
    54   27   28 1    
    55   27   29 1    
    56   27   95 1    
    57   28   96 1    
    58   28   97 1    
    59   28   98 1    
    60   29   30 am   BACKBONE|DICT|INTERRES
    61   29   99 1    
    62   30   31 2    
    63   30   32 1    
    64   32   33 1    
    65   32   34 1    
    66   32  100 1    
    67   33  101 1    
    68   33  102 1    
    69   33  103 1    
    70   34   35 am   BACKBONE|DICT|INTERRES
    71   34  104 1    
    72   35   36 2    
    73   37   38 2    
    74   37   39 am   BACKBONE|DICT|INTERRES
    75   39   40 1    
    76   39  105 1    
    77   40   41 1    
    78   40   42 1    
    79   40  106 1    
    80   41  107 1    
    81   41  108 1    
    82   41  109 1    
    83   42   43 2    
    84   42   44 am   BACKBONE|DICT|INTERRES
    85   44   45 1    
    86   44  110 1    
    87   45   46 1    
    88   45   47 1    
    89   45  111 1    
    90   46  112 1    
    91   46  113 1    
    92   46  114 1    
    93   47   48 2    
    94   47   49 am   BACKBONE|DICT|INTERRES
    95   49   50 1    
    96   49  115 1    
    97   50   51 1    
    98   50   52 1    
    99   50  116 1    
   100   51  117 1    
   101   51  118 1    
   102   51  119 1    
   103   52   53 2    
   104   52   54 am   BACKBONE|DICT|INTERRES
   105   54   55 1    
   106   54  120 1    
   107   55   56 1    
   108   55   57 1    
   109   55  121 1    
   110   56  122 1    
   111   56  123 1    
   112   56  124 1    
   113   57   58 2    
   114   57   59 am   BACKBONE|DICT|INTERRES
   115   59   60 1    
   116   59  125 1    
   117   60   61 1    
   118   60   62 1    
   119   60  126 1    
   120   61  127 1    
   121   61  128 1    
   122   61  129 1    
   123   62   63 2    
   124   62   64 am   BACKBONE|DICT|INTERRES
   125   64   65 1    
   126   64  130 1    
   127   65   66 1    
   128   65   69 1    
   129   65  131 1    
   130   66   67 am   BACKBONE|DICT|INTERRES
   131   66   68 2    
   132   67  132 1    
   133   67  133 1    
   134   69   70 1    
   135   69  134 1    
   136   69  135 1    
   137   70   71 1    
   138   71  136 1    
   139   71  137 1    
@<TRIPOS>SUBSTRUCTURE
     1 UNK         1 GROUP             0       ****    0 ROOT    
