@<TRIPOS>MOLECULE
3R137
137   139    1
SMALL
USER_CHARGES


@<TRIPOS>ATOM
      1 CA         25.7381   -2.9101   -0.4237 C.3       0 UNK        -0.2020 
      2 C          25.9684   -4.3923   -0.7114 C.2       0 UNK         0.4855 
      3 O          25.6829   -5.2212    0.1497 O.2       0 UNK        -0.5197 
      4 N          26.4848   -4.7835   -1.8853 N.am      1 UNK        -0.4892 
      5 CA         26.8492   -3.9310   -3.0269 C.3       1 UNK         0.0835 
      6 C6         27.9326   -4.5826   -3.9271 C.3       12 UNK        -0.0855 
      7 S7         29.3658   -5.2282   -2.9900 S.3       12 UNK        -0.2931 
      8 C8         30.7748   -4.3007   -3.6940 C.3       12 UNK         0.0378 
      9 C9         30.9533   -2.8587   -3.2114 C.ar      12 UNK        -0.0802 
     10 C10        31.9855   -2.1021   -3.7775 C.ar      12 UNK        -0.0944 
     11 C11        32.2105   -0.7771   -3.3875 C.ar      12 UNK        -0.0787 
     12 C12        31.3886   -0.2094   -2.4107 C.ar      12 UNK        -0.0862 
     13 C13        30.3524   -0.9477   -1.8306 C.ar      12 UNK        -0.0733 
     14 C14        30.1511   -2.2737   -2.2217 C.ar      12 UNK        -0.0832 
     15 C15        29.4480   -0.3089   -0.7824 C.3       12 UNK         0.0240 
     16 S16        27.7857    0.0779   -1.4326 S.3       12 UNK        -0.2522 
     17 C17        28.1803    1.0523   -2.9231 C.3       12 UNK        -0.0967 
     18 CA         27.8954    0.2098   -4.2012 C.3       5 UNK         0.0660 
     19 N          26.4677    0.1377   -4.5196 N.am      5 UNK        -0.4015 
     20 C          25.6982    1.1436   -4.9632 C.2       4 UNK         0.4946 
     21 O          26.1101    2.2886   -5.1578 O.2       4 UNK        -0.5353 
     22 CA         24.2209    0.8316   -5.2352 C.3       4 UNK         0.0277 
     23 CB         24.0414    0.3081   -6.6682 C.3       4 UNK        -0.1981 
     24 N          23.6945   -0.1658   -4.3025 N.am      4 UNK        -0.4209 
     25 C          22.6963    0.0314   -3.4305 C.2       3 UNK         0.4942 
     26 O          22.1340    1.1170   -3.2760 O.2       3 UNK        -0.5208 
     27 CA         22.2480   -1.1770   -2.5743 C.3       3 UNK         0.0250 
     28 CB         20.7199   -1.2057   -2.3573 C.3       3 UNK        -0.1990 
     29 N          22.7317   -2.4778   -3.0624 N.am      3 UNK        -0.4232 
     30 C          22.4823   -3.0592   -4.2474 C.2       2 UNK         0.4993 
     31 O          21.6819   -2.6174   -5.0724 O.2       2 UNK        -0.5286 
     32 CA         23.3053   -4.3222   -4.5833 C.3       2 UNK         0.0209 
     33 CB         23.5540   -4.4618   -6.1014 C.3       2 UNK        -0.1931 
     34 N          24.5813   -4.4286   -3.8525 N.am      2 UNK        -0.4546 
     35 C          25.6089   -3.5619   -3.8676 C.2       1 UNK         0.5154 
     36 O          25.5821   -2.4840   -4.4628 O.2       1 UNK        -0.5181 
     37 C          28.6953    0.6040   -5.4580 C.2       5 UNK         0.5014 
     38 O          28.5482   -0.0660   -6.4840 O.2       5 UNK        -0.5248 
     39 N          29.5035    1.6709   -5.3856 N.am      6 UNK        -0.4434 
     40 CA         30.3877    2.1387   -6.4560 C.3       6 UNK         0.0363 
     41 CB         31.1981    3.3445   -5.9574 C.3       6 UNK        -0.1936 
     42 C          29.6795    2.4739   -7.7787 C.2       6 UNK         0.5081 
     43 O          30.3056    2.3488   -8.8299 O.2       6 UNK        -0.5248 
     44 N          28.3917    2.8420   -7.7170 N.am      7 UNK        -0.4718 
     45 CA         27.5463    3.0938   -8.8870 C.3       7 UNK         0.0273 
     46 CB         26.2342    3.7527   -8.4324 C.3       7 UNK        -0.1935 
     47 C          27.2581    1.8349   -9.7279 C.2       7 UNK         0.5018 
     48 O          26.9962    1.9706  -10.9236 O.2       7 UNK        -0.5186 
     49 N          27.3154    0.6486   -9.1055 N.am      8 UNK        -0.4240 
     50 CA         27.1673   -0.6459   -9.7741 C.3       8 UNK         0.0235 
     51 CB         26.1835   -1.5269   -8.9871 C.3       8 UNK        -0.2000 
     52 C          28.5196   -1.3556   -9.9160 C.2       8 UNK         0.4941 
     53 O          28.7993   -1.9142  -10.9770 O.2       8 UNK        -0.5273 
     54 N          29.3285   -1.3346   -8.8481 N.am      9 UNK        -0.4262 
     55 CA         30.6075   -2.0403   -8.7590 C.3       9 UNK         0.0264 
     56 CB         30.9642   -2.2263   -7.2762 C.3       9 UNK        -0.1955 
     57 C          31.7603   -1.3732   -9.5328 C.2       9 UNK         0.5031 
     58 O          32.7570   -2.0497   -9.7905 O.2       9 UNK        -0.5390 
     59 N          31.6140   -0.0868   -9.8935 N.am      10 UNK        -0.4204 
     60 CA         32.5748    0.7421  -10.6362 C.3       10 UNK         0.0237 
     61 CB         32.7431    0.2293  -12.0830 C.3       10 UNK        -0.1985 
     62 C          33.9121    0.9057   -9.8880 C.2       10 UNK         0.4970 
     63 O          34.9800    0.7012  -10.4687 O.2       10 UNK        -0.4914 
     64 N          33.8183    1.2564   -8.5993 N.am      11 UNK        -0.4285 
     65 CA         34.9576    1.3863   -7.6735 C.3       11 UNK         0.1007 
     66 C          35.8850    2.6091   -7.9364 C.2       11 UNK         0.5703 
     67 N          35.4918    3.5826   -8.7496 N.am      11 UNK        -0.7361 
     68 O          36.9856    2.6716   -7.3937 O.2       11 UNK        -0.4986 
     69 C69        34.5051    1.3538   -6.1888 C.3       12 UNK        -0.0947 
     70 S70        33.4551   -0.0819   -5.7956 S.3       12 UNK        -0.2240 
     71 C71        33.3536    0.0428   -3.9823 C.3       12 UNK         0.0194 
     72 H72        25.3571   -2.3629   -1.2834 H         1 UNK         0.0906 
     73 H73        25.0150   -2.7902    0.3829 H         1 UNK         0.0906 
     74 H74        26.6703   -2.4459   -0.1034 H         1 UNK         0.0906 
     75 H75        26.6795   -5.7671   -2.0131 H         1 UNK         0.3140 
     76 H76        27.2601   -2.9944   -2.6475 H         1 UNK         0.1085 
     77 H77        27.5131   -5.4190   -4.4901 H         1 UNK         0.0836 
     78 H78        28.2804   -3.8639   -4.6725 H         1 UNK         0.0836 
     79 H79        31.6846   -4.8507   -3.4492 H         1 UNK         0.0731 
     80 H80        30.6971   -4.3137   -4.7820 H         1 UNK         0.0731 
     81 H81        32.6230   -2.5503   -4.5274 H         1 UNK         0.1312 
     82 H82        31.5567    0.8122   -2.0981 H         1 UNK         0.1406 
     83 H83        29.3640   -2.8374   -1.7444 H         1 UNK         0.1631 
     84 H84        29.8969    0.6063   -0.3931 H         1 UNK         0.0717 
     85 H85        29.3462   -0.9828    0.0695 H         1 UNK         0.0717 
     86 H86        27.5911    1.9706   -2.9107 H         1 UNK         0.0934 
     87 H87        29.2181    1.3724   -2.8496 H         1 UNK         0.0934 
     88 H88        28.2102   -0.8169   -4.0076 H         1 UNK         0.0739 
     89 H89        26.0719   -0.7989   -4.4772 H         1 UNK         0.3093 
     90 H90        23.6721    1.7713   -5.1440 H         1 UNK         0.0818 
     91 H91        22.9855    0.2188   -6.9238 H         1 UNK         0.0819 
     92 H92        24.4986    0.9758   -7.3994 H         1 UNK         0.0819 
     93 H93        24.4938   -0.6762   -6.7871 H         1 UNK         0.0819 
     94 H94        24.1101   -1.0892   -4.3521 H         1 UNK         0.3041 
     95 H95        22.7135   -1.0326   -1.5981 H         1 UNK         0.0784 
     96 H96        20.3781   -0.3025   -1.8503 H         1 UNK         0.0793 
     97 H97        20.1776   -1.2713   -3.3009 H         1 UNK         0.0793 
     98 H98        20.4223   -2.0528   -1.7394 H         1 UNK         0.0793 
     99 H99        23.3865   -2.9497   -2.4565 H         1 UNK         0.3024 
    100 H100       22.6928   -5.1687   -4.2678 H         1 UNK         0.1171 
    101 H101       24.1242   -5.3624   -6.3293 H         1 UNK         0.0786 
    102 H102       24.1016   -3.6079   -6.5023 H         1 UNK         0.0786 
    103 H103       22.6139   -4.5307   -6.6503 H         1 UNK         0.0786 
    104 H104       24.6929   -5.2634   -3.2923 H         1 UNK         0.2977 
    105 H105       29.5303    2.1957   -4.5244 H         1 UNK         0.3127 
    106 H106       31.0803    1.3249   -6.6716 H         1 UNK         0.0770 
    107 H107       30.5529    4.1870   -5.7053 H         1 UNK         0.0814 
    108 H108       31.8981    3.6881   -6.7205 H         1 UNK         0.0814 
    109 H109       31.7830    3.0922   -5.0728 H         1 UNK         0.0814 
    110 H110       27.9446    2.8920   -6.8104 H         1 UNK         0.2983 
    111 H111       28.0747    3.7975   -9.5342 H         1 UNK         0.0947 
    112 H112       25.5933    3.9777   -9.2861 H         1 UNK         0.0806 
    113 H113       26.4213    4.6926   -7.9128 H         1 UNK         0.0806 
    114 H114       25.6683    3.1066   -7.7614 H         1 UNK         0.0806 
    115 H115       27.5774    0.6277   -8.1255 H         1 UNK         0.3000 
    116 H116       26.7620   -0.5132  -10.7796 H         1 UNK         0.0850 
    117 H117       26.1207   -2.5270   -9.4185 H         1 UNK         0.0810 
    118 H118       25.1791   -1.1058   -9.0136 H         1 UNK         0.0810 
    119 H119       26.4805   -1.6393   -7.9432 H         1 UNK         0.0810 
    120 H120       29.0124   -0.8718   -7.9963 H         1 UNK         0.3040 
    121 H121       30.4749   -3.0338   -9.1929 H         1 UNK         0.0766 
    122 H122       31.9304   -2.7185   -7.1579 H         1 UNK         0.0812 
    123 H123       30.2214   -2.8398   -6.7666 H         1 UNK         0.0812 
    124 H124       31.0145   -1.2718   -6.7540 H         1 UNK         0.0812 
    125 H125       30.7770    0.4011   -9.5954 H         1 UNK         0.3205 
    126 H126       32.1384    1.7399  -10.6975 H         1 UNK         0.0754 
    127 H127       33.3633    0.9094  -12.6682 H         1 UNK         0.0769 
    128 H128       31.7809    0.1520  -12.5894 H         1 UNK         0.0769 
    129 H129       33.2182   -0.7517  -12.1153 H         1 UNK         0.0769 
    130 H130       32.9033    1.4038   -8.2027 H         1 UNK         0.2981 
    131 H131       35.5852    0.5071   -7.8320 H         1 UNK         0.0541 
    132 H132       34.5940    3.5395   -9.2032 H         1 UNK         0.3459 
    133 H133       36.1044    4.3659   -8.9136 H         1 UNK         0.3459 
    134 H134       33.9553    2.2616   -5.9376 H         1 UNK         0.0612 
    135 H135       35.3739    1.3263   -5.5284 H         1 UNK         0.0612 
    136 H136       34.2970   -0.2912   -3.5489 H         1 UNK         0.0624 
    137 H137       33.2403    1.0946   -3.7150 H         1 UNK         0.0624 
@<TRIPOS>BOND
     1    1    2 1    
     2    1   72 1    
     3    1   73 1    
     4    1   74 1    
     5    2    3 2    
     6    2    4 am   BACKBONE|DICT|INTERRES
     7    4    5 1    
     8    4   75 1    
     9    5    6 1    
    10    5   35 1    
    11    5   76 1    
    12    6    7 1    
    13    6   77 1    
    14    6   78 1    
    15    7    8 1    
    16    8    9 1    
    17    8   79 1    
    18    8   80 1    
    19    9   10 ar   
    20    9   14 ar   
    21   10   11 ar   
    22   10   81 1    
    23   11   12 ar   
    24   11   71 1    
    25   12   13 ar   
    26   12   82 1    
    27   13   14 ar   
    28   13   15 1    
    29   14   83 1    
    30   15   16 1    
    31   15   84 1    
    32   15   85 1    
    33   16   17 1    
    34   17   18 1    
    35   17   86 1    
    36   17   87 1    
    37   18   19 1    
    38   18   37 1    
    39   18   88 1    
    40   19   20 am   BACKBONE|DICT|INTERRES
    41   19   89 1    
    42   20   21 2    
    43   20   22 1    
    44   22   23 1    
    45   22   24 1    
    46   22   90 1    
    47   23   91 1    
    48   23   92 1    
    49   23   93 1    
    50   24   25 am   BACKBONE|DICT|INTERRES
    51   24   94 1    
    52   25   26 2    
    53   25   27 1    
    54   27   28 1    
    55   27   29 1    
    56   27   95 1    
    57   28   96 1    
    58   28   97 1    
    59   28   98 1    
    60   29   30 am   BACKBONE|DICT|INTERRES
    61   29   99 1    
    62   30   31 2    
    63   30   32 1    
    64   32   33 1    
    65   32   34 1    
    66   32  100 1    
    67   33  101 1    
    68   33  102 1    
    69   33  103 1    
    70   34   35 am   BACKBONE|DICT|INTERRES
    71   34  104 1    
    72   35   36 2    
    73   37   38 2    
    74   37   39 am   BACKBONE|DICT|INTERRES
    75   39   40 1    
    76   39  105 1    
    77   40   41 1    
    78   40   42 1    
    79   40  106 1    
    80   41  107 1    
    81   41  108 1    
    82   41  109 1    
    83   42   43 2    
    84   42   44 am   BACKBONE|DICT|INTERRES
    85   44   45 1    
    86   44  110 1    
    87   45   46 1    
    88   45   47 1    
    89   45  111 1    
    90   46  112 1    
    91   46  113 1    
    92   46  114 1    
    93   47   48 2    
    94   47   49 am   BACKBONE|DICT|INTERRES
    95   49   50 1    
    96   49  115 1    
    97   50   51 1    
    98   50   52 1    
    99   50  116 1    
   100   51  117 1    
   101   51  118 1    
   102   51  119 1    
   103   52   53 2    
   104   52   54 am   BACKBONE|DICT|INTERRES
   105   54   55 1    
   106   54  120 1    
   107   55   56 1    
   108   55   57 1    
   109   55  121 1    
   110   56  122 1    
   111   56  123 1    
   112   56  124 1    
   113   57   58 2    
   114   57   59 am   BACKBONE|DICT|INTERRES
   115   59   60 1    
   116   59  125 1    
   117   60   61 1    
   118   60   62 1    
   119   60  126 1    
   120   61  127 1    
   121   61  128 1    
   122   61  129 1    
   123   62   63 2    
   124   62   64 am   BACKBONE|DICT|INTERRES
   125   64   65 1    
   126   64  130 1    
   127   65   66 1    
   128   65   69 1    
   129   65  131 1    
   130   66   67 am   BACKBONE|DICT|INTERRES
   131   66   68 2    
   132   67  132 1    
   133   67  133 1    
   134   69   70 1    
   135   69  134 1    
   136   69  135 1    
   137   70   71 1    
   138   71  136 1    
   139   71  137 1    
@<TRIPOS>SUBSTRUCTURE
     1 UNK         1 GROUP             0       ****    0 ROOT    
