@<TRIPOS>MOLECULE
3R137
137   139    1
SMALL
USER_CHARGES


@<TRIPOS>ATOM
      1 CA         25.0799   -1.8112   -1.0720 C.3       0 UNK        -0.2020 
      2 C          25.9017   -2.4152   -2.1988 C.2       0 UNK         0.4855 
      3 O          25.8847   -1.8938   -3.3148 O.2       0 UNK        -0.5197 
      4 N          26.6252   -3.5081   -1.9277 N.am      1 UNK        -0.4892 
      5 CA         27.4580   -4.2219   -2.9016 C.3       1 UNK         0.0835 
      6 C6         28.2821   -5.3622   -2.2542 C.3       12 UNK        -0.0855 
      7 S7         29.2970   -4.8251   -0.8374 S.3       12 UNK        -0.2931 
      8 C8         30.8329   -4.2603   -1.6522 C.3       12 UNK         0.0378 
      9 C9         30.9404   -2.7508   -1.8857 C.ar      12 UNK        -0.0802 
     10 C10        31.8852   -2.2855   -2.8082 C.ar      12 UNK        -0.0944 
     11 C11        32.1033   -0.9155   -2.9806 C.ar      12 UNK        -0.0787 
     12 C12        31.3584   -0.0020   -2.2325 C.ar      12 UNK        -0.0862 
     13 C13        30.3953   -0.4446   -1.3223 C.ar      12 UNK        -0.0733 
     14 C14        30.1914   -1.8175   -1.1527 C.ar      12 UNK        -0.0832 
     15 C15        29.6162    0.5599   -0.4821 C.3       12 UNK         0.0240 
     16 S16        27.9667    0.9203   -1.1665 S.3       12 UNK        -0.2522 
     17 C17        28.3750    1.7364   -2.7474 C.3       12 UNK        -0.0967 
     18 CA         27.9532    0.8499   -3.9533 C.3       5 UNK         0.0660 
     19 N          26.4989    0.6780   -4.0393 N.am      5 UNK        -0.4015 
     20 C          25.6020    1.6190   -4.3636 C.2       4 UNK         0.4946 
     21 O          25.9065    2.7708   -4.6815 O.2       4 UNK        -0.5353 
     22 CA         24.1239    1.1990   -4.3281 C.3       4 UNK         0.0277 
     23 CB         23.1857    2.2323   -4.9848 C.3       4 UNK        -0.1981 
     24 N          23.9285   -0.1095   -4.9555 N.am      4 UNK        -0.4209 
     25 C          23.0247   -1.0165   -4.5593 C.2       3 UNK         0.4942 
     26 O          22.2954   -0.8816   -3.5763 O.2       3 UNK        -0.5208 
     27 CA         22.9006   -2.2820   -5.4155 C.3       3 UNK         0.0250 
     28 CB         22.1707   -1.9381   -6.7346 C.3       3 UNK        -0.1990 
     29 N          24.2162   -2.8957   -5.6353 N.am      3 UNK        -0.4232 
     30 C          24.4515   -4.0201   -6.3304 C.2       2 UNK         0.4993 
     31 O          23.5773   -4.6772   -6.8962 O.2       2 UNK        -0.5286 
     32 CA         25.9065   -4.5167   -6.4167 C.3       2 UNK         0.0209 
     33 CB         26.5861   -3.9728   -7.6824 C.3       2 UNK        -0.1931 
     34 N          26.7134   -4.1729   -5.2437 N.am      2 UNK        -0.4546 
     35 C          26.5880   -4.7711   -4.0519 C.2       1 UNK         0.5154 
     36 O          25.8085   -5.7014   -3.8321 O.2       1 UNK        -0.5181 
     37 C          28.5244    1.2852   -5.3196 C.2       5 UNK         0.5014 
     38 O          28.1534    0.6857   -6.3312 O.2       5 UNK        -0.5248 
     39 N          29.3838    2.3135   -5.3503 N.am      6 UNK        -0.4434 
     40 CA         30.0812    2.8151   -6.5411 C.3       6 UNK         0.0363 
     41 CB         31.1051    3.8760   -6.1045 C.3       6 UNK        -0.1936 
     42 C          29.1745    3.3617   -7.6618 C.2       6 UNK         0.5081 
     43 O          29.6605    3.5710   -8.7734 O.2       6 UNK        -0.5248 
     44 N          27.8825    3.5764   -7.3757 N.am      7 UNK        -0.4718 
     45 CA         26.8681    3.9097   -8.3775 C.3       7 UNK         0.0273 
     46 CB         25.6490    4.5292   -7.6753 C.3       7 UNK        -0.1935 
     47 C          26.4415    2.6982   -9.2307 C.2       7 UNK         0.5018 
     48 O          25.8379    2.9063  -10.2843 O.2       7 UNK        -0.5186 
     49 N          26.7366    1.4728   -8.7709 N.am      8 UNK        -0.4240 
     50 CA         26.3661    0.2209   -9.4334 C.3       8 UNK         0.0235 
     51 CB         25.2552   -0.4676   -8.6229 C.3       8 UNK        -0.2000 
     52 C          27.5671   -0.7182   -9.6165 C.2       8 UNK         0.4941 
     53 O          27.7112   -1.3015  -10.6918 O.2       8 UNK        -0.5273 
     54 N          28.3913   -0.8742   -8.5728 N.am      9 UNK        -0.4262 
     55 CA         29.5653   -1.7447   -8.5626 C.3       9 UNK         0.0264 
     56 CB         29.8815   -2.1418   -7.1104 C.3       9 UNK        -0.1955 
     57 C          30.7761   -1.0505   -9.2000 C.2       9 UNK         0.5031 
     58 O          30.9097    0.1729   -9.1119 O.2       9 UNK        -0.5390 
     59 N          31.6743   -1.8534   -9.7831 N.am      10 UNK        -0.4204 
     60 CA         32.9361   -1.4138  -10.3838 C.3       10 UNK         0.0237 
     61 CB         33.3817   -2.4553  -11.4283 C.3       10 UNK        -0.1985 
     62 C          34.0108   -1.1495   -9.3103 C.2       10 UNK         0.4970 
     63 O          35.0437   -1.8215   -9.2895 O.2       10 UNK        -0.4914 
     64 N          33.7337   -0.1870   -8.4241 N.am      11 UNK        -0.4285 
     65 CA         34.6139    0.2317   -7.3212 C.3       11 UNK         0.1007 
     66 C          35.8975    0.9940   -7.7646 C.2       11 UNK         0.5703 
     67 N          35.9966    1.4757   -8.9984 N.am      11 UNK        -0.7361 
     68 O          36.8247    1.1448   -6.9724 O.2       11 UNK        -0.4986 
     69 C69        33.8397    1.0438   -6.2514 C.3       12 UNK        -0.0947 
     70 S70        32.4499    0.1200   -5.5151 S.3       12 UNK        -0.2240 
     71 C71        33.1733   -0.4102   -3.9360 C.3       12 UNK         0.0194 
     72 H72        24.0217   -1.8288   -1.3318 H         1 UNK         0.0906 
     73 H73        25.2118   -2.3517   -0.1351 H         1 UNK         0.0906 
     74 H74        25.3722   -0.7741   -0.9107 H         1 UNK         0.0906 
     75 H75        26.6089   -3.9062   -0.9995 H         1 UNK         0.3140 
     76 H76        28.1640   -3.4971   -3.3138 H         1 UNK         0.1085 
     77 H77        27.6182   -6.1485   -1.8886 H         1 UNK         0.0836 
     78 H78        28.9245   -5.8411   -2.9956 H         1 UNK         0.0836 
     79 H79        31.6706   -4.5555   -1.0190 H         1 UNK         0.0731 
     80 H80        30.9665   -4.7941   -2.5941 H         1 UNK         0.0731 
     81 H81        32.4791   -2.9929   -3.3712 H         1 UNK         0.1312 
     82 H82        31.5448    1.0562   -2.3521 H         1 UNK         0.1406 
     83 H83        29.4655   -2.1476   -0.4231 H         1 UNK         0.1631 
     84 H84        30.1755    1.4912   -0.3798 H         1 UNK         0.0717 
     85 H85        29.4954    0.1707    0.5300 H         1 UNK         0.0717 
     86 H86        27.8722    2.7047   -2.7780 H         1 UNK         0.0934 
     87 H87        29.4419    1.9534   -2.7560 H         1 UNK         0.0934 
     88 H88        28.3639   -0.1480   -3.7886 H         1 UNK         0.0739 
     89 H89        26.1659   -0.2561   -3.7991 H         1 UNK         0.3093 
     90 H90        23.8666    1.1326   -3.2686 H         1 UNK         0.0818 
     91 H91        22.1400    1.9456   -4.8726 H         1 UNK         0.0819 
     92 H92        23.2992    3.2162   -4.5277 H         1 UNK         0.0819 
     93 H93        23.3908    2.3385   -6.0504 H         1 UNK         0.0819 
     94 H94        24.4943   -0.3019   -5.7689 H         1 UNK         0.3041 
     95 H95        22.2923   -2.9971   -4.8581 H         1 UNK         0.0784 
     96 H96        21.2711   -1.3511   -6.5430 H         1 UNK         0.0793 
     97 H97        22.7989   -1.3574   -7.4084 H         1 UNK         0.0793 
     98 H98        21.8472   -2.8314   -7.2674 H         1 UNK         0.0793 
     99 H99        24.9777   -2.4966   -5.0946 H         1 UNK         0.3024 
    100 H100       25.8681   -5.6059   -6.4978 H         1 UNK         0.1171 
    101 H101       26.0016   -4.2053   -8.5738 H         1 UNK         0.0786 
    102 H102       27.5746   -4.4101   -7.8229 H         1 UNK         0.0786 
    103 H103       26.6979   -2.8910   -7.6397 H         1 UNK         0.0786 
    104 H104       27.3459   -3.3918   -5.3350 H         1 UNK         0.2977 
    105 H105       29.6033    2.7806   -4.4837 H         1 UNK         0.3127 
    106 H106       30.6254    1.9738   -6.9745 H         1 UNK         0.0770 
    107 H107       30.6199    4.7436   -5.6559 H         1 UNK         0.0814 
    108 H108       31.6864    4.2315   -6.9564 H         1 UNK         0.0814 
    109 H109       31.8129    3.4717   -5.3806 H         1 UNK         0.0814 
    110 H110       27.5510    3.3814   -6.4391 H         1 UNK         0.2983 
    111 H111       27.2830    4.6570   -9.0577 H         1 UNK         0.0947 
    112 H112       24.9045    4.8557   -8.4027 H         1 UNK         0.0806 
    113 H113       25.9291    5.4016   -7.0849 H         1 UNK         0.0806 
    114 H114       25.1612    3.8163   -7.0109 H         1 UNK         0.0806 
    115 H115       27.2621    1.3922   -7.9052 H         1 UNK         0.3000 
    116 H116       25.9754    0.4247  -10.4327 H         1 UNK         0.0850 
    117 H117       24.9611   -1.4124   -9.0826 H         1 UNK         0.0810 
    118 H118       25.5761   -0.6827   -7.6037 H         1 UNK         0.0810 
    119 H119       24.3650    0.1593   -8.5705 H         1 UNK         0.0810 
    120 H120       28.2533   -0.3122   -7.7332 H         1 UNK         0.3040 
    121 H121       29.3390   -2.6512   -9.1285 H         1 UNK         0.0766 
    122 H122       29.0599   -2.6946   -6.6588 H         1 UNK         0.0812 
    123 H123       30.0709   -1.2672   -6.4886 H         1 UNK         0.0812 
    124 H124       30.7670   -2.7764   -7.0558 H         1 UNK         0.0812 
    125 H125       31.5104   -2.8502   -9.7718 H         1 UNK         0.3205 
    126 H126       32.7666   -0.4716  -10.9099 H         1 UNK         0.0754 
    127 H127       34.3051   -2.1454  -11.9197 H         1 UNK         0.0769 
    128 H128       32.6300   -2.5813  -12.2078 H         1 UNK         0.0769 
    129 H129       33.5639   -3.4314  -10.9767 H         1 UNK         0.0769 
    130 H130       32.8339    0.2776   -8.4920 H         1 UNK         0.2981 
    131 H131       34.9696   -0.6801   -6.8376 H         1 UNK         0.0541 
    132 H132       35.2414    1.3614   -9.6545 H         1 UNK         0.3459 
    133 H133       36.8353    1.9629   -9.2720 H         1 UNK         0.3459 
    134 H134       33.4367    1.9554   -6.6956 H         1 UNK         0.0612 
    135 H135       34.5081    1.3713   -5.4531 H         1 UNK         0.0612 
    136 H136       33.6999    0.4255   -3.4729 H         1 UNK         0.0624 
    137 H137       33.9210   -1.1820   -4.1250 H         1 UNK         0.0624 
@<TRIPOS>BOND
     1    1    2 1    
     2    1   72 1    
     3    1   73 1    
     4    1   74 1    
     5    2    3 2    
     6    2    4 am   BACKBONE|DICT|INTERRES
     7    4    5 1    
     8    4   75 1    
     9    5    6 1    
    10    5   35 1    
    11    5   76 1    
    12    6    7 1    
    13    6   77 1    
    14    6   78 1    
    15    7    8 1    
    16    8    9 1    
    17    8   79 1    
    18    8   80 1    
    19    9   10 ar   
    20    9   14 ar   
    21   10   11 ar   
    22   10   81 1    
    23   11   12 ar   
    24   11   71 1    
    25   12   13 ar   
    26   12   82 1    
    27   13   14 ar   
    28   13   15 1    
    29   14   83 1    
    30   15   16 1    
    31   15   84 1    
    32   15   85 1    
    33   16   17 1    
    34   17   18 1    
    35   17   86 1    
    36   17   87 1    
    37   18   19 1    
    38   18   37 1    
    39   18   88 1    
    40   19   20 am   BACKBONE|DICT|INTERRES
    41   19   89 1    
    42   20   21 2    
    43   20   22 1    
    44   22   23 1    
    45   22   24 1    
    46   22   90 1    
    47   23   91 1    
    48   23   92 1    
    49   23   93 1    
    50   24   25 am   BACKBONE|DICT|INTERRES
    51   24   94 1    
    52   25   26 2    
    53   25   27 1    
    54   27   28 1    
    55   27   29 1    
    56   27   95 1    
    57   28   96 1    
    58   28   97 1    
    59   28   98 1    
    60   29   30 am   BACKBONE|DICT|INTERRES
    61   29   99 1    
    62   30   31 2    
    63   30   32 1    
    64   32   33 1    
    65   32   34 1    
    66   32  100 1    
    67   33  101 1    
    68   33  102 1    
    69   33  103 1    
    70   34   35 am   BACKBONE|DICT|INTERRES
    71   34  104 1    
    72   35   36 2    
    73   37   38 2    
    74   37   39 am   BACKBONE|DICT|INTERRES
    75   39   40 1    
    76   39  105 1    
    77   40   41 1    
    78   40   42 1    
    79   40  106 1    
    80   41  107 1    
    81   41  108 1    
    82   41  109 1    
    83   42   43 2    
    84   42   44 am   BACKBONE|DICT|INTERRES
    85   44   45 1    
    86   44  110 1    
    87   45   46 1    
    88   45   47 1    
    89   45  111 1    
    90   46  112 1    
    91   46  113 1    
    92   46  114 1    
    93   47   48 2    
    94   47   49 am   BACKBONE|DICT|INTERRES
    95   49   50 1    
    96   49  115 1    
    97   50   51 1    
    98   50   52 1    
    99   50  116 1    
   100   51  117 1    
   101   51  118 1    
   102   51  119 1    
   103   52   53 2    
   104   52   54 am   BACKBONE|DICT|INTERRES
   105   54   55 1    
   106   54  120 1    
   107   55   56 1    
   108   55   57 1    
   109   55  121 1    
   110   56  122 1    
   111   56  123 1    
   112   56  124 1    
   113   57   58 2    
   114   57   59 am   BACKBONE|DICT|INTERRES
   115   59   60 1    
   116   59  125 1    
   117   60   61 1    
   118   60   62 1    
   119   60  126 1    
   120   61  127 1    
   121   61  128 1    
   122   61  129 1    
   123   62   63 2    
   124   62   64 am   BACKBONE|DICT|INTERRES
   125   64   65 1    
   126   64  130 1    
   127   65   66 1    
   128   65   69 1    
   129   65  131 1    
   130   66   67 am   BACKBONE|DICT|INTERRES
   131   66   68 2    
   132   67  132 1    
   133   67  133 1    
   134   69   70 1    
   135   69  134 1    
   136   69  135 1    
   137   70   71 1    
   138   71  136 1    
   139   71  137 1    
@<TRIPOS>SUBSTRUCTURE
     1 UNK         1 GROUP             0       ****    0 ROOT    
